version 2
run General-0-20161130-19:43:08-4885
attr configname General
attr datetime 20161130-19:43:08
attr experiment General
attr inifile omnetpp.ini
attr iterationvars ""
attr iterationvars2 $repetition=0
attr measurement ""
attr network net
attr processid 4885
attr repetition 0
attr replication #0
attr resultdir results
attr runnumber 0
attr seedset 0

scalar net.node[275].appl 	messagesReceived:sum 	0
scalar net.node[275].appl 	messagesTransmitted:sum 	0
scalar net.node[275].appl 	duplicatedMessages:sum 	0
scalar net.node[275].nic.phy80211p 	busyTime 	0
scalar net.node[275].nic.mac1609_4 	ReceivedUnicastPackets 	0
scalar net.node[275].nic.mac1609_4 	ReceivedBroadcasts 	0
scalar net.node[275].nic.mac1609_4 	SentPackets 	0
scalar net.node[275].nic.mac1609_4 	SNIRLostPackets 	0
scalar net.node[275].nic.mac1609_4 	RXTXLostPackets 	0
scalar net.node[275].nic.mac1609_4 	TotalLostPackets 	0
scalar net.node[275].nic.mac1609_4 	DroppedPacketsInMac 	0
scalar net.node[275].nic.mac1609_4 	TooLittleTime 	0
scalar net.node[275].nic.mac1609_4 	TimesIntoBackoff 	0
scalar net.node[275].nic.mac1609_4 	SlotsBackoff 	0
scalar net.node[275].nic.mac1609_4 	NumInternalContention 	0
scalar net.node[275].nic.mac1609_4 	totalBusyTime 	0
scalar net.node[275].veinsmobility 	startTime 	299
scalar net.node[275].veinsmobility 	totalTime 	0.4
scalar net.node[275].veinsmobility 	stopTime 	299.5
scalar net.node[275].veinsmobility 	minSpeed 	13.839239813196
scalar net.node[275].veinsmobility 	maxSpeed 	13.859900136105
scalar net.node[275].veinsmobility 	totalDistance 	5.5387806842723
scalar net.node[275].veinsmobility 	totalCO2Emission 	0.56727701773613
scalar net.node[12].appl 	messagesReceived:sum 	0
scalar net.node[12].appl 	messagesTransmitted:sum 	0
scalar net.node[12].appl 	duplicatedMessages:sum 	0
scalar net.node[12].nic.phy80211p 	busyTime 	0
scalar net.node[12].nic.mac1609_4 	ReceivedUnicastPackets 	0
scalar net.node[12].nic.mac1609_4 	ReceivedBroadcasts 	0
scalar net.node[12].nic.mac1609_4 	SentPackets 	0
scalar net.node[12].nic.mac1609_4 	SNIRLostPackets 	0
scalar net.node[12].nic.mac1609_4 	RXTXLostPackets 	0
scalar net.node[12].nic.mac1609_4 	TotalLostPackets 	0
scalar net.node[12].nic.mac1609_4 	DroppedPacketsInMac 	0
scalar net.node[12].nic.mac1609_4 	TooLittleTime 	0
scalar net.node[12].nic.mac1609_4 	TimesIntoBackoff 	0
scalar net.node[12].nic.mac1609_4 	SlotsBackoff 	0
scalar net.node[12].nic.mac1609_4 	NumInternalContention 	0
scalar net.node[12].nic.mac1609_4 	totalBusyTime 	0
scalar net.node[12].veinsmobility 	startTime 	299
scalar net.node[12].veinsmobility 	totalTime 	0.4
scalar net.node[12].veinsmobility 	stopTime 	299.5
scalar net.node[12].veinsmobility 	minSpeed 	11.709726040462
scalar net.node[12].veinsmobility 	maxSpeed 	11.791883271808
scalar net.node[12].veinsmobility 	totalDistance 	4.7030987610001
scalar net.node[12].veinsmobility 	totalCO2Emission 	0.33436501060615
scalar net.node[61].appl 	messagesReceived:sum 	0
scalar net.node[61].appl 	messagesTransmitted:sum 	0
scalar net.node[61].appl 	duplicatedMessages:sum 	0
scalar net.node[61].nic.phy80211p 	busyTime 	0
scalar net.node[61].nic.mac1609_4 	ReceivedUnicastPackets 	0
scalar net.node[61].nic.mac1609_4 	ReceivedBroadcasts 	0
scalar net.node[61].nic.mac1609_4 	SentPackets 	0
scalar net.node[61].nic.mac1609_4 	SNIRLostPackets 	0
scalar net.node[61].nic.mac1609_4 	RXTXLostPackets 	0
scalar net.node[61].nic.mac1609_4 	TotalLostPackets 	0
scalar net.node[61].nic.mac1609_4 	DroppedPacketsInMac 	0
scalar net.node[61].nic.mac1609_4 	TooLittleTime 	0
scalar net.node[61].nic.mac1609_4 	TimesIntoBackoff 	0
scalar net.node[61].nic.mac1609_4 	SlotsBackoff 	0
scalar net.node[61].nic.mac1609_4 	NumInternalContention 	0
scalar net.node[61].nic.mac1609_4 	totalBusyTime 	0
scalar net.node[61].veinsmobility 	startTime 	299
scalar net.node[61].veinsmobility 	totalTime 	1.6
scalar net.node[61].veinsmobility 	stopTime 	300.7
scalar net.node[61].veinsmobility 	minSpeed 	13.811552675883
scalar net.node[61].veinsmobility 	maxSpeed 	13.899165901315
scalar net.node[61].veinsmobility 	totalDistance 	22.155607681271
scalar net.node[61].veinsmobility 	totalCO2Emission 	3.3958061924649
scalar net.node[274].appl 	messagesReceived:sum 	0
scalar net.node[274].appl 	messagesTransmitted:sum 	0
scalar net.node[274].appl 	duplicatedMessages:sum 	0
scalar net.node[274].nic.phy80211p 	busyTime 	0
scalar net.node[274].nic.mac1609_4 	ReceivedUnicastPackets 	0
scalar net.node[274].nic.mac1609_4 	ReceivedBroadcasts 	0
scalar net.node[274].nic.mac1609_4 	SentPackets 	0
scalar net.node[274].nic.mac1609_4 	SNIRLostPackets 	0
scalar net.node[274].nic.mac1609_4 	RXTXLostPackets 	0
scalar net.node[274].nic.mac1609_4 	TotalLostPackets 	0
scalar net.node[274].nic.mac1609_4 	DroppedPacketsInMac 	0
scalar net.node[274].nic.mac1609_4 	TooLittleTime 	0
scalar net.node[274].nic.mac1609_4 	TimesIntoBackoff 	0
scalar net.node[274].nic.mac1609_4 	SlotsBackoff 	0
scalar net.node[274].nic.mac1609_4 	NumInternalContention 	0
scalar net.node[274].nic.mac1609_4 	totalBusyTime 	0
scalar net.node[274].veinsmobility 	startTime 	299
scalar net.node[274].veinsmobility 	totalTime 	3
scalar net.node[274].veinsmobility 	stopTime 	302.1
scalar net.node[274].veinsmobility 	minSpeed 	12.943995887197
scalar net.node[274].veinsmobility 	maxSpeed 	13.898926259414
scalar net.node[274].veinsmobility 	totalDistance 	41.181289815525
scalar net.node[274].veinsmobility 	totalCO2Emission 	9.57047317522
scalar net.node[291].appl 	messagesReceived:sum 	0
scalar net.node[291].appl 	messagesTransmitted:sum 	0
scalar net.node[291].appl 	duplicatedMessages:sum 	0
scalar net.node[291].nic.phy80211p 	busyTime 	0
scalar net.node[291].nic.mac1609_4 	ReceivedUnicastPackets 	0
scalar net.node[291].nic.mac1609_4 	ReceivedBroadcasts 	0
scalar net.node[291].nic.mac1609_4 	SentPackets 	0
scalar net.node[291].nic.mac1609_4 	SNIRLostPackets 	0
scalar net.node[291].nic.mac1609_4 	RXTXLostPackets 	0
scalar net.node[291].nic.mac1609_4 	TotalLostPackets 	0
scalar net.node[291].nic.mac1609_4 	DroppedPacketsInMac 	0
scalar net.node[291].nic.mac1609_4 	TooLittleTime 	0
scalar net.node[291].nic.mac1609_4 	TimesIntoBackoff 	0
scalar net.node[291].nic.mac1609_4 	SlotsBackoff 	0
scalar net.node[291].nic.mac1609_4 	NumInternalContention 	0
scalar net.node[291].nic.mac1609_4 	totalBusyTime 	0
scalar net.node[291].veinsmobility 	startTime 	299
scalar net.node[291].veinsmobility 	totalTime 	4.3
scalar net.node[291].veinsmobility 	stopTime 	303.4
scalar net.node[291].veinsmobility 	minSpeed 	10.425243119839
scalar net.node[291].veinsmobility 	maxSpeed 	13.895166499219
scalar net.node[291].veinsmobility 	totalDistance 	55.791559687858
scalar net.node[291].veinsmobility 	totalCO2Emission 	19.094954856912
scalar net.node[47].appl 	messagesReceived:sum 	0
scalar net.node[47].appl 	messagesTransmitted:sum 	0
scalar net.node[47].appl 	duplicatedMessages:sum 	0
scalar net.node[47].nic.phy80211p 	busyTime 	0
scalar net.node[47].nic.mac1609_4 	ReceivedUnicastPackets 	0
scalar net.node[47].nic.mac1609_4 	ReceivedBroadcasts 	0
scalar net.node[47].nic.mac1609_4 	SentPackets 	0
scalar net.node[47].nic.mac1609_4 	SNIRLostPackets 	0
scalar net.node[47].nic.mac1609_4 	RXTXLostPackets 	0
scalar net.node[47].nic.mac1609_4 	TotalLostPackets 	0
scalar net.node[47].nic.mac1609_4 	DroppedPacketsInMac 	0
scalar net.node[47].nic.mac1609_4 	TooLittleTime 	0
scalar net.node[47].nic.mac1609_4 	TimesIntoBackoff 	0
scalar net.node[47].nic.mac1609_4 	SlotsBackoff 	0
scalar net.node[47].nic.mac1609_4 	NumInternalContention 	0
scalar net.node[47].nic.mac1609_4 	totalBusyTime 	0
scalar net.node[47].veinsmobility 	startTime 	299
scalar net.node[47].veinsmobility 	totalTime 	4.3
scalar net.node[47].veinsmobility 	stopTime 	303.4
scalar net.node[47].veinsmobility 	minSpeed 	13.769151449931
scalar net.node[47].veinsmobility 	maxSpeed 	13.899994705761
scalar net.node[47].veinsmobility 	totalDistance 	59.488865233358
scalar net.node[47].veinsmobility 	totalCO2Emission 	10.705550386366
scalar net.node[282].appl 	messagesReceived:sum 	0
scalar net.node[282].appl 	messagesTransmitted:sum 	0
scalar net.node[282].appl 	duplicatedMessages:sum 	0
scalar net.node[282].nic.phy80211p 	busyTime 	0
scalar net.node[282].nic.mac1609_4 	ReceivedUnicastPackets 	0
scalar net.node[282].nic.mac1609_4 	ReceivedBroadcasts 	0
scalar net.node[282].nic.mac1609_4 	SentPackets 	0
scalar net.node[282].nic.mac1609_4 	SNIRLostPackets 	0
scalar net.node[282].nic.mac1609_4 	RXTXLostPackets 	0
scalar net.node[282].nic.mac1609_4 	TotalLostPackets 	0
scalar net.node[282].nic.mac1609_4 	DroppedPacketsInMac 	0
scalar net.node[282].nic.mac1609_4 	TooLittleTime 	0
scalar net.node[282].nic.mac1609_4 	TimesIntoBackoff 	0
scalar net.node[282].nic.mac1609_4 	SlotsBackoff 	0
scalar net.node[282].nic.mac1609_4 	NumInternalContention 	0
scalar net.node[282].nic.mac1609_4 	totalBusyTime 	0
scalar net.node[282].veinsmobility 	startTime 	299
scalar net.node[282].veinsmobility 	totalTime 	5
scalar net.node[282].veinsmobility 	stopTime 	304.1
scalar net.node[282].veinsmobility 	minSpeed 	7.8680499839257
scalar net.node[282].veinsmobility 	maxSpeed 	11.114413747982
scalar net.node[282].veinsmobility 	totalDistance 	52.225526791
scalar net.node[282].veinsmobility 	totalCO2Emission 	16.701367789214
scalar net.node[18].appl 	messagesReceived:sum 	0
scalar net.node[18].appl 	messagesTransmitted:sum 	0
scalar net.node[18].appl 	duplicatedMessages:sum 	0
scalar net.node[18].nic.phy80211p 	busyTime 	0
scalar net.node[18].nic.mac1609_4 	ReceivedUnicastPackets 	0
scalar net.node[18].nic.mac1609_4 	ReceivedBroadcasts 	0
scalar net.node[18].nic.mac1609_4 	SentPackets 	0
scalar net.node[18].nic.mac1609_4 	SNIRLostPackets 	0
scalar net.node[18].nic.mac1609_4 	RXTXLostPackets 	0
scalar net.node[18].nic.mac1609_4 	TotalLostPackets 	0
scalar net.node[18].nic.mac1609_4 	DroppedPacketsInMac 	0
scalar net.node[18].nic.mac1609_4 	TooLittleTime 	0
scalar net.node[18].nic.mac1609_4 	TimesIntoBackoff 	0
scalar net.node[18].nic.mac1609_4 	SlotsBackoff 	0
scalar net.node[18].nic.mac1609_4 	NumInternalContention 	0
scalar net.node[18].nic.mac1609_4 	totalBusyTime 	0
scalar net.node[18].veinsmobility 	startTime 	299
scalar net.node[18].veinsmobility 	totalTime 	5.1
scalar net.node[18].veinsmobility 	stopTime 	304.2
scalar net.node[18].veinsmobility 	minSpeed 	11.18036294403
scalar net.node[18].veinsmobility 	maxSpeed 	11.305416599941
scalar net.node[18].veinsmobility 	totalDistance 	57.359555994148
scalar net.node[18].veinsmobility 	totalCO2Emission 	10.206115724367
scalar net.node[20].appl 	messagesReceived:sum 	0
scalar net.node[20].appl 	messagesTransmitted:sum 	0
scalar net.node[20].appl 	duplicatedMessages:sum 	0
scalar net.node[20].nic.phy80211p 	busyTime 	0
scalar net.node[20].nic.mac1609_4 	ReceivedUnicastPackets 	0
scalar net.node[20].nic.mac1609_4 	ReceivedBroadcasts 	0
scalar net.node[20].nic.mac1609_4 	SentPackets 	0
scalar net.node[20].nic.mac1609_4 	SNIRLostPackets 	0
scalar net.node[20].nic.mac1609_4 	RXTXLostPackets 	0
scalar net.node[20].nic.mac1609_4 	TotalLostPackets 	0
scalar net.node[20].nic.mac1609_4 	DroppedPacketsInMac 	0
scalar net.node[20].nic.mac1609_4 	TooLittleTime 	0
scalar net.node[20].nic.mac1609_4 	TimesIntoBackoff 	0
scalar net.node[20].nic.mac1609_4 	SlotsBackoff 	0
scalar net.node[20].nic.mac1609_4 	NumInternalContention 	0
scalar net.node[20].nic.mac1609_4 	totalBusyTime 	0
scalar net.node[20].veinsmobility 	startTime 	299
scalar net.node[20].veinsmobility 	totalTime 	5.7
scalar net.node[20].veinsmobility 	stopTime 	304.8
scalar net.node[20].veinsmobility 	minSpeed 	7.7908298769603
scalar net.node[20].veinsmobility 	maxSpeed 	13.899103369982
scalar net.node[20].veinsmobility 	totalDistance 	70.397400204247
scalar net.node[20].veinsmobility 	totalCO2Emission 	26.971387353781
scalar net.node[294].appl 	messagesReceived:sum 	0
scalar net.node[294].appl 	messagesTransmitted:sum 	0
scalar net.node[294].appl 	duplicatedMessages:sum 	0
scalar net.node[294].nic.phy80211p 	busyTime 	0
scalar net.node[294].nic.mac1609_4 	ReceivedUnicastPackets 	0
scalar net.node[294].nic.mac1609_4 	ReceivedBroadcasts 	0
scalar net.node[294].nic.mac1609_4 	SentPackets 	0
scalar net.node[294].nic.mac1609_4 	SNIRLostPackets 	0
scalar net.node[294].nic.mac1609_4 	RXTXLostPackets 	0
scalar net.node[294].nic.mac1609_4 	TotalLostPackets 	0
scalar net.node[294].nic.mac1609_4 	DroppedPacketsInMac 	0
scalar net.node[294].nic.mac1609_4 	TooLittleTime 	0
scalar net.node[294].nic.mac1609_4 	TimesIntoBackoff 	0
scalar net.node[294].nic.mac1609_4 	SlotsBackoff 	0
scalar net.node[294].nic.mac1609_4 	NumInternalContention 	0
scalar net.node[294].nic.mac1609_4 	totalBusyTime 	0
scalar net.node[294].veinsmobility 	startTime 	299
scalar net.node[294].veinsmobility 	totalTime 	7.1
scalar net.node[294].veinsmobility 	stopTime 	306.2
scalar net.node[294].veinsmobility 	minSpeed 	13.773305888989
scalar net.node[294].veinsmobility 	maxSpeed 	13.899637299369
scalar net.node[294].veinsmobility 	totalDistance 	98.270099748421
scalar net.node[294].veinsmobility 	totalCO2Emission 	16.96428470153
scalar net.node[128].appl 	messagesReceived:sum 	0
scalar net.node[128].appl 	messagesTransmitted:sum 	0
scalar net.node[128].appl 	duplicatedMessages:sum 	0
scalar net.node[128].nic.phy80211p 	busyTime 	0
scalar net.node[128].nic.mac1609_4 	ReceivedUnicastPackets 	0
scalar net.node[128].nic.mac1609_4 	ReceivedBroadcasts 	0
scalar net.node[128].nic.mac1609_4 	SentPackets 	0
scalar net.node[128].nic.mac1609_4 	SNIRLostPackets 	0
scalar net.node[128].nic.mac1609_4 	RXTXLostPackets 	0
scalar net.node[128].nic.mac1609_4 	TotalLostPackets 	0
scalar net.node[128].nic.mac1609_4 	DroppedPacketsInMac 	0
scalar net.node[128].nic.mac1609_4 	TooLittleTime 	0
scalar net.node[128].nic.mac1609_4 	TimesIntoBackoff 	0
scalar net.node[128].nic.mac1609_4 	SlotsBackoff 	0
scalar net.node[128].nic.mac1609_4 	NumInternalContention 	0
scalar net.node[128].nic.mac1609_4 	totalBusyTime 	0
scalar net.node[128].veinsmobility 	startTime 	299
scalar net.node[128].veinsmobility 	totalTime 	8.9
scalar net.node[128].veinsmobility 	stopTime 	308
scalar net.node[128].veinsmobility 	minSpeed 	3.0244302510872
scalar net.node[128].veinsmobility 	maxSpeed 	13.878831211671
scalar net.node[128].veinsmobility 	totalDistance 	76.170306437628
scalar net.node[128].veinsmobility 	totalCO2Emission 	35.867891562903
scalar net.node[272].appl 	messagesReceived:sum 	0
scalar net.node[272].appl 	messagesTransmitted:sum 	0
scalar net.node[272].appl 	duplicatedMessages:sum 	0
scalar net.node[272].nic.phy80211p 	busyTime 	0
scalar net.node[272].nic.mac1609_4 	ReceivedUnicastPackets 	0
scalar net.node[272].nic.mac1609_4 	ReceivedBroadcasts 	0
scalar net.node[272].nic.mac1609_4 	SentPackets 	0
scalar net.node[272].nic.mac1609_4 	SNIRLostPackets 	0
scalar net.node[272].nic.mac1609_4 	RXTXLostPackets 	0
scalar net.node[272].nic.mac1609_4 	TotalLostPackets 	0
scalar net.node[272].nic.mac1609_4 	DroppedPacketsInMac 	0
scalar net.node[272].nic.mac1609_4 	TooLittleTime 	0
scalar net.node[272].nic.mac1609_4 	TimesIntoBackoff 	0
scalar net.node[272].nic.mac1609_4 	SlotsBackoff 	0
scalar net.node[272].nic.mac1609_4 	NumInternalContention 	0
scalar net.node[272].nic.mac1609_4 	totalBusyTime 	0
scalar net.node[272].veinsmobility 	startTime 	299
scalar net.node[272].veinsmobility 	totalTime 	9
scalar net.node[272].veinsmobility 	stopTime 	308.1
scalar net.node[272].veinsmobility 	minSpeed 	3.1397171183084
scalar net.node[272].veinsmobility 	maxSpeed 	13.895272582863
scalar net.node[272].veinsmobility 	totalDistance 	88.296463972844
scalar net.node[272].veinsmobility 	totalCO2Emission 	37.400132183408
scalar net.node[0].appl 	messagesReceived:sum 	0
scalar net.node[0].appl 	messagesTransmitted:sum 	0
scalar net.node[0].appl 	duplicatedMessages:sum 	0
scalar net.node[0].nic.phy80211p 	busyTime 	0
scalar net.node[0].nic.mac1609_4 	ReceivedUnicastPackets 	0
scalar net.node[0].nic.mac1609_4 	ReceivedBroadcasts 	0
scalar net.node[0].nic.mac1609_4 	SentPackets 	0
scalar net.node[0].nic.mac1609_4 	SNIRLostPackets 	0
scalar net.node[0].nic.mac1609_4 	RXTXLostPackets 	0
scalar net.node[0].nic.mac1609_4 	TotalLostPackets 	0
scalar net.node[0].nic.mac1609_4 	DroppedPacketsInMac 	0
scalar net.node[0].nic.mac1609_4 	TooLittleTime 	0
scalar net.node[0].nic.mac1609_4 	TimesIntoBackoff 	0
scalar net.node[0].nic.mac1609_4 	SlotsBackoff 	0
scalar net.node[0].nic.mac1609_4 	NumInternalContention 	0
scalar net.node[0].nic.mac1609_4 	totalBusyTime 	0
scalar net.node[0].veinsmobility 	startTime 	299
scalar net.node[0].veinsmobility 	totalTime 	9.1
scalar net.node[0].veinsmobility 	stopTime 	308.2
scalar net.node[0].veinsmobility 	minSpeed 	3.1170100498585
scalar net.node[0].veinsmobility 	maxSpeed 	10.969363583047
scalar net.node[0].veinsmobility 	totalDistance 	73.923656890489
scalar net.node[0].veinsmobility 	totalCO2Emission 	27.740656548282
scalar net.node[68].appl 	messagesReceived:sum 	0
scalar net.node[68].appl 	messagesTransmitted:sum 	0
scalar net.node[68].appl 	duplicatedMessages:sum 	0
scalar net.node[68].nic.phy80211p 	busyTime 	0
scalar net.node[68].nic.mac1609_4 	ReceivedUnicastPackets 	0
scalar net.node[68].nic.mac1609_4 	ReceivedBroadcasts 	0
scalar net.node[68].nic.mac1609_4 	SentPackets 	0
scalar net.node[68].nic.mac1609_4 	SNIRLostPackets 	0
scalar net.node[68].nic.mac1609_4 	RXTXLostPackets 	0
scalar net.node[68].nic.mac1609_4 	TotalLostPackets 	0
scalar net.node[68].nic.mac1609_4 	DroppedPacketsInMac 	0
scalar net.node[68].nic.mac1609_4 	TooLittleTime 	0
scalar net.node[68].nic.mac1609_4 	TimesIntoBackoff 	0
scalar net.node[68].nic.mac1609_4 	SlotsBackoff 	0
scalar net.node[68].nic.mac1609_4 	NumInternalContention 	0
scalar net.node[68].nic.mac1609_4 	totalBusyTime 	0
scalar net.node[68].veinsmobility 	startTime 	299
scalar net.node[68].veinsmobility 	totalTime 	9.8
scalar net.node[68].veinsmobility 	stopTime 	308.9
scalar net.node[68].veinsmobility 	minSpeed 	3.0850221914197
scalar net.node[68].veinsmobility 	maxSpeed 	13.894590747592
scalar net.node[68].veinsmobility 	totalDistance 	89.937626619051
scalar net.node[68].veinsmobility 	totalCO2Emission 	38.502932797285
scalar net.node[19].appl 	messagesReceived:sum 	0
scalar net.node[19].appl 	messagesTransmitted:sum 	0
scalar net.node[19].appl 	duplicatedMessages:sum 	0
scalar net.node[19].nic.phy80211p 	busyTime 	0
scalar net.node[19].nic.mac1609_4 	ReceivedUnicastPackets 	0
scalar net.node[19].nic.mac1609_4 	ReceivedBroadcasts 	0
scalar net.node[19].nic.mac1609_4 	SentPackets 	0
scalar net.node[19].nic.mac1609_4 	SNIRLostPackets 	0
scalar net.node[19].nic.mac1609_4 	RXTXLostPackets 	0
scalar net.node[19].nic.mac1609_4 	TotalLostPackets 	0
scalar net.node[19].nic.mac1609_4 	DroppedPacketsInMac 	0
scalar net.node[19].nic.mac1609_4 	TooLittleTime 	0
scalar net.node[19].nic.mac1609_4 	TimesIntoBackoff 	0
scalar net.node[19].nic.mac1609_4 	SlotsBackoff 	0
scalar net.node[19].nic.mac1609_4 	NumInternalContention 	0
scalar net.node[19].nic.mac1609_4 	totalBusyTime 	0
scalar net.node[19].veinsmobility 	startTime 	299
scalar net.node[19].veinsmobility 	totalTime 	10.2
scalar net.node[19].veinsmobility 	stopTime 	309.3
scalar net.node[19].veinsmobility 	minSpeed 	1.1555897239102
scalar net.node[19].veinsmobility 	maxSpeed 	13.895454401696
scalar net.node[19].veinsmobility 	totalDistance 	83.921016806235
scalar net.node[19].veinsmobility 	totalCO2Emission 	39.419823831387
scalar net.node[190].appl 	messagesReceived:sum 	0
scalar net.node[190].appl 	messagesTransmitted:sum 	0
scalar net.node[190].appl 	duplicatedMessages:sum 	0
scalar net.node[190].nic.phy80211p 	busyTime 	0
scalar net.node[190].nic.mac1609_4 	ReceivedUnicastPackets 	0
scalar net.node[190].nic.mac1609_4 	ReceivedBroadcasts 	0
scalar net.node[190].nic.mac1609_4 	SentPackets 	0
scalar net.node[190].nic.mac1609_4 	SNIRLostPackets 	0
scalar net.node[190].nic.mac1609_4 	RXTXLostPackets 	0
scalar net.node[190].nic.mac1609_4 	TotalLostPackets 	0
scalar net.node[190].nic.mac1609_4 	DroppedPacketsInMac 	0
scalar net.node[190].nic.mac1609_4 	TooLittleTime 	0
scalar net.node[190].nic.mac1609_4 	TimesIntoBackoff 	0
scalar net.node[190].nic.mac1609_4 	SlotsBackoff 	0
scalar net.node[190].nic.mac1609_4 	NumInternalContention 	0
scalar net.node[190].nic.mac1609_4 	totalBusyTime 	0
scalar net.node[190].veinsmobility 	startTime 	299
scalar net.node[190].veinsmobility 	totalTime 	10.3
scalar net.node[190].veinsmobility 	stopTime 	309.4
scalar net.node[190].veinsmobility 	minSpeed 	13.769383678608
scalar net.node[190].veinsmobility 	maxSpeed 	13.898550745506
scalar net.node[190].veinsmobility 	totalDistance 	144.66380972348
scalar net.node[190].veinsmobility 	totalCO2Emission 	24.167355967796
scalar net.node[45].appl 	messagesReceived:sum 	0
scalar net.node[45].appl 	messagesTransmitted:sum 	0
scalar net.node[45].appl 	duplicatedMessages:sum 	0
scalar net.node[45].nic.phy80211p 	busyTime 	0
scalar net.node[45].nic.mac1609_4 	ReceivedUnicastPackets 	0
scalar net.node[45].nic.mac1609_4 	ReceivedBroadcasts 	0
scalar net.node[45].nic.mac1609_4 	SentPackets 	0
scalar net.node[45].nic.mac1609_4 	SNIRLostPackets 	0
scalar net.node[45].nic.mac1609_4 	RXTXLostPackets 	0
scalar net.node[45].nic.mac1609_4 	TotalLostPackets 	0
scalar net.node[45].nic.mac1609_4 	DroppedPacketsInMac 	0
scalar net.node[45].nic.mac1609_4 	TooLittleTime 	0
scalar net.node[45].nic.mac1609_4 	TimesIntoBackoff 	0
scalar net.node[45].nic.mac1609_4 	SlotsBackoff 	0
scalar net.node[45].nic.mac1609_4 	NumInternalContention 	0
scalar net.node[45].nic.mac1609_4 	totalBusyTime 	0
scalar net.node[45].veinsmobility 	startTime 	299
scalar net.node[45].veinsmobility 	totalTime 	10.8
scalar net.node[45].veinsmobility 	stopTime 	309.9
scalar net.node[45].veinsmobility 	minSpeed 	13.809677407188
scalar net.node[45].veinsmobility 	maxSpeed 	13.899902160102
scalar net.node[45].veinsmobility 	totalDistance 	151.77272344541
scalar net.node[45].veinsmobility 	totalCO2Emission 	22.973075689096
scalar net.node[67].appl 	messagesReceived:sum 	0
scalar net.node[67].appl 	messagesTransmitted:sum 	0
scalar net.node[67].appl 	duplicatedMessages:sum 	0
scalar net.node[67].nic.phy80211p 	busyTime 	0
scalar net.node[67].nic.mac1609_4 	ReceivedUnicastPackets 	0
scalar net.node[67].nic.mac1609_4 	ReceivedBroadcasts 	0
scalar net.node[67].nic.mac1609_4 	SentPackets 	0
scalar net.node[67].nic.mac1609_4 	SNIRLostPackets 	0
scalar net.node[67].nic.mac1609_4 	RXTXLostPackets 	0
scalar net.node[67].nic.mac1609_4 	TotalLostPackets 	0
scalar net.node[67].nic.mac1609_4 	DroppedPacketsInMac 	0
scalar net.node[67].nic.mac1609_4 	TooLittleTime 	0
scalar net.node[67].nic.mac1609_4 	TimesIntoBackoff 	0
scalar net.node[67].nic.mac1609_4 	SlotsBackoff 	0
scalar net.node[67].nic.mac1609_4 	NumInternalContention 	0
scalar net.node[67].nic.mac1609_4 	totalBusyTime 	0
scalar net.node[67].veinsmobility 	startTime 	299
scalar net.node[67].veinsmobility 	totalTime 	11.1
scalar net.node[67].veinsmobility 	stopTime 	310.2
scalar net.node[67].veinsmobility 	minSpeed 	2.9693710752924
scalar net.node[67].veinsmobility 	maxSpeed 	13.861908985481
scalar net.node[67].veinsmobility 	totalDistance 	98.947113192354
scalar net.node[67].veinsmobility 	totalCO2Emission 	37.833289184376
scalar net.node[10].appl 	messagesReceived:sum 	0
scalar net.node[10].appl 	messagesTransmitted:sum 	0
scalar net.node[10].appl 	duplicatedMessages:sum 	0
scalar net.node[10].nic.phy80211p 	busyTime 	0
scalar net.node[10].nic.mac1609_4 	ReceivedUnicastPackets 	0
scalar net.node[10].nic.mac1609_4 	ReceivedBroadcasts 	0
scalar net.node[10].nic.mac1609_4 	SentPackets 	0
scalar net.node[10].nic.mac1609_4 	SNIRLostPackets 	0
scalar net.node[10].nic.mac1609_4 	RXTXLostPackets 	0
scalar net.node[10].nic.mac1609_4 	TotalLostPackets 	0
scalar net.node[10].nic.mac1609_4 	DroppedPacketsInMac 	0
scalar net.node[10].nic.mac1609_4 	TooLittleTime 	0
scalar net.node[10].nic.mac1609_4 	TimesIntoBackoff 	0
scalar net.node[10].nic.mac1609_4 	SlotsBackoff 	0
scalar net.node[10].nic.mac1609_4 	NumInternalContention 	0
scalar net.node[10].nic.mac1609_4 	totalBusyTime 	0
scalar net.node[10].veinsmobility 	startTime 	299
scalar net.node[10].veinsmobility 	totalTime 	13.1
scalar net.node[10].veinsmobility 	stopTime 	312.2
scalar net.node[10].veinsmobility 	minSpeed 	3.0899545144802
scalar net.node[10].veinsmobility 	maxSpeed 	13.898377399411
scalar net.node[10].veinsmobility 	totalDistance 	115.21977445003
scalar net.node[10].veinsmobility 	totalCO2Emission 	27.992339125271
scalar net.node[6].appl 	messagesReceived:sum 	0
scalar net.node[6].appl 	messagesTransmitted:sum 	0
scalar net.node[6].appl 	duplicatedMessages:sum 	0
scalar net.node[6].nic.phy80211p 	busyTime 	0
scalar net.node[6].nic.mac1609_4 	ReceivedUnicastPackets 	0
scalar net.node[6].nic.mac1609_4 	ReceivedBroadcasts 	0
scalar net.node[6].nic.mac1609_4 	SentPackets 	0
scalar net.node[6].nic.mac1609_4 	SNIRLostPackets 	0
scalar net.node[6].nic.mac1609_4 	RXTXLostPackets 	0
scalar net.node[6].nic.mac1609_4 	TotalLostPackets 	0
scalar net.node[6].nic.mac1609_4 	DroppedPacketsInMac 	0
scalar net.node[6].nic.mac1609_4 	TooLittleTime 	0
scalar net.node[6].nic.mac1609_4 	TimesIntoBackoff 	0
scalar net.node[6].nic.mac1609_4 	SlotsBackoff 	0
scalar net.node[6].nic.mac1609_4 	NumInternalContention 	0
scalar net.node[6].nic.mac1609_4 	totalBusyTime 	0
scalar net.node[6].veinsmobility 	startTime 	299
scalar net.node[6].veinsmobility 	totalTime 	13.5
scalar net.node[6].veinsmobility 	stopTime 	312.6
scalar net.node[6].veinsmobility 	minSpeed 	3.1061069110338
scalar net.node[6].veinsmobility 	maxSpeed 	11.878073107475
scalar net.node[6].veinsmobility 	totalDistance 	125.06221849387
scalar net.node[6].veinsmobility 	totalCO2Emission 	37.824787054506
scalar net.node[232].appl 	messagesReceived:sum 	6
scalar net.node[232].appl 	messagesTransmitted:sum 	1
scalar net.node[232].appl 	duplicatedMessages:sum 	5
scalar net.node[232].nic.phy80211p 	busyTime 	2.9813664596273e-05
scalar net.node[232].nic.mac1609_4 	ReceivedUnicastPackets 	0
scalar net.node[232].nic.mac1609_4 	ReceivedBroadcasts 	6
scalar net.node[232].nic.mac1609_4 	SentPackets 	1
scalar net.node[232].nic.mac1609_4 	SNIRLostPackets 	0
scalar net.node[232].nic.mac1609_4 	RXTXLostPackets 	0
scalar net.node[232].nic.mac1609_4 	TotalLostPackets 	0
scalar net.node[232].nic.mac1609_4 	DroppedPacketsInMac 	0
scalar net.node[232].nic.mac1609_4 	TooLittleTime 	0
scalar net.node[232].nic.mac1609_4 	TimesIntoBackoff 	1
scalar net.node[232].nic.mac1609_4 	SlotsBackoff 	3
scalar net.node[232].nic.mac1609_4 	NumInternalContention 	0
scalar net.node[232].nic.mac1609_4 	totalBusyTime 	0.000561
scalar net.node[232].veinsmobility 	startTime 	299
scalar net.node[232].veinsmobility 	totalTime 	16
scalar net.node[232].veinsmobility 	stopTime 	315.1
scalar net.node[232].veinsmobility 	minSpeed 	3.1170257025485
scalar net.node[232].veinsmobility 	maxSpeed 	13.899053416576
scalar net.node[232].veinsmobility 	totalDistance 	172.28928414336
scalar net.node[232].veinsmobility 	totalCO2Emission 	49.122543831963
scalar net.node[21].appl 	messagesReceived:sum 	5
scalar net.node[21].appl 	messagesTransmitted:sum 	1
scalar net.node[21].appl 	duplicatedMessages:sum 	4
scalar net.node[21].nic.phy80211p 	busyTime 	2.3255813953488e-05
scalar net.node[21].nic.mac1609_4 	ReceivedUnicastPackets 	0
scalar net.node[21].nic.mac1609_4 	ReceivedBroadcasts 	5
scalar net.node[21].nic.mac1609_4 	SentPackets 	1
scalar net.node[21].nic.mac1609_4 	SNIRLostPackets 	0
scalar net.node[21].nic.mac1609_4 	RXTXLostPackets 	0
scalar net.node[21].nic.mac1609_4 	TotalLostPackets 	0
scalar net.node[21].nic.mac1609_4 	DroppedPacketsInMac 	0
scalar net.node[21].nic.mac1609_4 	TooLittleTime 	0
scalar net.node[21].nic.mac1609_4 	TimesIntoBackoff 	1
scalar net.node[21].nic.mac1609_4 	SlotsBackoff 	2
scalar net.node[21].nic.mac1609_4 	NumInternalContention 	0
scalar net.node[21].nic.mac1609_4 	totalBusyTime 	0.000481
scalar net.node[21].veinsmobility 	startTime 	299
scalar net.node[21].veinsmobility 	totalTime 	17.1
scalar net.node[21].veinsmobility 	stopTime 	316.2
scalar net.node[21].veinsmobility 	minSpeed 	13.047626947812
scalar net.node[21].veinsmobility 	maxSpeed 	13.897802826459
scalar net.node[21].veinsmobility 	totalDistance 	238.58959827906
scalar net.node[21].veinsmobility 	totalCO2Emission 	41.999918803189
scalar net.node[25].appl 	messagesReceived:sum 	0
scalar net.node[25].appl 	messagesTransmitted:sum 	0
scalar net.node[25].appl 	duplicatedMessages:sum 	0
scalar net.node[25].nic.phy80211p 	busyTime 	0
scalar net.node[25].nic.mac1609_4 	ReceivedUnicastPackets 	0
scalar net.node[25].nic.mac1609_4 	ReceivedBroadcasts 	0
scalar net.node[25].nic.mac1609_4 	SentPackets 	0
scalar net.node[25].nic.mac1609_4 	SNIRLostPackets 	0
scalar net.node[25].nic.mac1609_4 	RXTXLostPackets 	0
scalar net.node[25].nic.mac1609_4 	TotalLostPackets 	0
scalar net.node[25].nic.mac1609_4 	DroppedPacketsInMac 	0
scalar net.node[25].nic.mac1609_4 	TooLittleTime 	0
scalar net.node[25].nic.mac1609_4 	TimesIntoBackoff 	0
scalar net.node[25].nic.mac1609_4 	SlotsBackoff 	0
scalar net.node[25].nic.mac1609_4 	NumInternalContention 	0
scalar net.node[25].nic.mac1609_4 	totalBusyTime 	0
scalar net.node[25].veinsmobility 	startTime 	299
scalar net.node[25].veinsmobility 	totalTime 	17.9
scalar net.node[25].veinsmobility 	stopTime 	317
scalar net.node[25].veinsmobility 	minSpeed 	3.0490231678037
scalar net.node[25].veinsmobility 	maxSpeed 	13.899623136116
scalar net.node[25].veinsmobility 	totalDistance 	192.69349009681
scalar net.node[25].veinsmobility 	totalCO2Emission 	54.421863863726
scalar net.node[292].appl 	messagesReceived:sum 	0
scalar net.node[292].appl 	messagesTransmitted:sum 	0
scalar net.node[292].appl 	duplicatedMessages:sum 	0
scalar net.node[292].nic.phy80211p 	busyTime 	0
scalar net.node[292].nic.mac1609_4 	ReceivedUnicastPackets 	0
scalar net.node[292].nic.mac1609_4 	ReceivedBroadcasts 	0
scalar net.node[292].nic.mac1609_4 	SentPackets 	0
scalar net.node[292].nic.mac1609_4 	SNIRLostPackets 	0
scalar net.node[292].nic.mac1609_4 	RXTXLostPackets 	0
scalar net.node[292].nic.mac1609_4 	TotalLostPackets 	0
scalar net.node[292].nic.mac1609_4 	DroppedPacketsInMac 	0
scalar net.node[292].nic.mac1609_4 	TooLittleTime 	0
scalar net.node[292].nic.mac1609_4 	TimesIntoBackoff 	0
scalar net.node[292].nic.mac1609_4 	SlotsBackoff 	0
scalar net.node[292].nic.mac1609_4 	NumInternalContention 	0
scalar net.node[292].nic.mac1609_4 	totalBusyTime 	0
scalar net.node[292].veinsmobility 	startTime 	299
scalar net.node[292].veinsmobility 	totalTime 	19.6
scalar net.node[292].veinsmobility 	stopTime 	318.7
scalar net.node[292].veinsmobility 	minSpeed 	3.1365392455558
scalar net.node[292].veinsmobility 	maxSpeed 	13.899566454447
scalar net.node[292].veinsmobility 	totalDistance 	209.3830713498
scalar net.node[292].veinsmobility 	totalCO2Emission 	56.335339559313
scalar net.node[63].appl 	messagesReceived:sum 	2
scalar net.node[63].appl 	messagesTransmitted:sum 	1
scalar net.node[63].appl 	duplicatedMessages:sum 	1
scalar net.node[63].nic.phy80211p 	busyTime 	7.7294685990338e-06
scalar net.node[63].nic.mac1609_4 	ReceivedUnicastPackets 	0
scalar net.node[63].nic.mac1609_4 	ReceivedBroadcasts 	2
scalar net.node[63].nic.mac1609_4 	SentPackets 	1
scalar net.node[63].nic.mac1609_4 	SNIRLostPackets 	0
scalar net.node[63].nic.mac1609_4 	RXTXLostPackets 	0
scalar net.node[63].nic.mac1609_4 	TotalLostPackets 	0
scalar net.node[63].nic.mac1609_4 	DroppedPacketsInMac 	0
scalar net.node[63].nic.mac1609_4 	TooLittleTime 	0
scalar net.node[63].nic.mac1609_4 	TimesIntoBackoff 	1
scalar net.node[63].nic.mac1609_4 	SlotsBackoff 	3
scalar net.node[63].nic.mac1609_4 	NumInternalContention 	0
scalar net.node[63].nic.mac1609_4 	totalBusyTime 	0.000241
scalar net.node[63].veinsmobility 	startTime 	299
scalar net.node[63].veinsmobility 	totalTime 	20.6
scalar net.node[63].veinsmobility 	stopTime 	319.7
scalar net.node[63].veinsmobility 	minSpeed 	6.7375849511898
scalar net.node[63].veinsmobility 	maxSpeed 	13.899537555823
scalar net.node[63].veinsmobility 	totalDistance 	272.66235398872
scalar net.node[63].veinsmobility 	totalCO2Emission 	62.930774561656
scalar net.node[117].appl 	messagesReceived:sum 	0
scalar net.node[117].appl 	messagesTransmitted:sum 	0
scalar net.node[117].appl 	duplicatedMessages:sum 	0
scalar net.node[117].nic.phy80211p 	busyTime 	0
scalar net.node[117].nic.mac1609_4 	ReceivedUnicastPackets 	0
scalar net.node[117].nic.mac1609_4 	ReceivedBroadcasts 	0
scalar net.node[117].nic.mac1609_4 	SentPackets 	0
scalar net.node[117].nic.mac1609_4 	SNIRLostPackets 	0
scalar net.node[117].nic.mac1609_4 	RXTXLostPackets 	0
scalar net.node[117].nic.mac1609_4 	TotalLostPackets 	0
scalar net.node[117].nic.mac1609_4 	DroppedPacketsInMac 	0
scalar net.node[117].nic.mac1609_4 	TooLittleTime 	0
scalar net.node[117].nic.mac1609_4 	TimesIntoBackoff 	0
scalar net.node[117].nic.mac1609_4 	SlotsBackoff 	0
scalar net.node[117].nic.mac1609_4 	NumInternalContention 	0
scalar net.node[117].nic.mac1609_4 	totalBusyTime 	0
scalar net.node[117].veinsmobility 	startTime 	299
scalar net.node[117].veinsmobility 	totalTime 	21.9
scalar net.node[117].veinsmobility 	stopTime 	321
scalar net.node[117].veinsmobility 	minSpeed 	3.0525651172124
scalar net.node[117].veinsmobility 	maxSpeed 	13.898403055981
scalar net.node[117].veinsmobility 	totalDistance 	256.12679734317
scalar net.node[117].veinsmobility 	totalCO2Emission 	61.839721893801
scalar net.node[161].appl 	messagesReceived:sum 	0
scalar net.node[161].appl 	messagesTransmitted:sum 	0
scalar net.node[161].appl 	duplicatedMessages:sum 	0
scalar net.node[161].nic.phy80211p 	busyTime 	0
scalar net.node[161].nic.mac1609_4 	ReceivedUnicastPackets 	0
scalar net.node[161].nic.mac1609_4 	ReceivedBroadcasts 	0
scalar net.node[161].nic.mac1609_4 	SentPackets 	0
scalar net.node[161].nic.mac1609_4 	SNIRLostPackets 	0
scalar net.node[161].nic.mac1609_4 	RXTXLostPackets 	0
scalar net.node[161].nic.mac1609_4 	TotalLostPackets 	0
scalar net.node[161].nic.mac1609_4 	DroppedPacketsInMac 	0
scalar net.node[161].nic.mac1609_4 	TooLittleTime 	0
scalar net.node[161].nic.mac1609_4 	TimesIntoBackoff 	0
scalar net.node[161].nic.mac1609_4 	SlotsBackoff 	0
scalar net.node[161].nic.mac1609_4 	NumInternalContention 	0
scalar net.node[161].nic.mac1609_4 	totalBusyTime 	0
scalar net.node[161].veinsmobility 	startTime 	299
scalar net.node[161].veinsmobility 	totalTime 	24.2
scalar net.node[161].veinsmobility 	stopTime 	323.3
scalar net.node[161].veinsmobility 	minSpeed 	2.9586229680295
scalar net.node[161].veinsmobility 	maxSpeed 	13.898791005068
scalar net.node[161].veinsmobility 	totalDistance 	281.90734605167
scalar net.node[161].veinsmobility 	totalCO2Emission 	69.284552404915
scalar net.node[281].appl 	messagesReceived:sum 	9
scalar net.node[281].appl 	messagesTransmitted:sum 	1
scalar net.node[281].appl 	duplicatedMessages:sum 	8
scalar net.node[281].nic.phy80211p 	busyTime 	2.2784810126582e-05
scalar net.node[281].nic.mac1609_4 	ReceivedUnicastPackets 	0
scalar net.node[281].nic.mac1609_4 	ReceivedBroadcasts 	9
scalar net.node[281].nic.mac1609_4 	SentPackets 	1
scalar net.node[281].nic.mac1609_4 	SNIRLostPackets 	0
scalar net.node[281].nic.mac1609_4 	RXTXLostPackets 	0
scalar net.node[281].nic.mac1609_4 	TotalLostPackets 	0
scalar net.node[281].nic.mac1609_4 	DroppedPacketsInMac 	0
scalar net.node[281].nic.mac1609_4 	TooLittleTime 	0
scalar net.node[281].nic.mac1609_4 	TimesIntoBackoff 	1
scalar net.node[281].nic.mac1609_4 	SlotsBackoff 	2
scalar net.node[281].nic.mac1609_4 	NumInternalContention 	0
scalar net.node[281].nic.mac1609_4 	totalBusyTime 	0.000801
scalar net.node[281].veinsmobility 	startTime 	299
scalar net.node[281].veinsmobility 	totalTime 	31.5
scalar net.node[281].veinsmobility 	stopTime 	330.6
scalar net.node[281].veinsmobility 	minSpeed 	2.9879348775072
scalar net.node[281].veinsmobility 	maxSpeed 	13.899921104305
scalar net.node[281].veinsmobility 	totalDistance 	383.97788857891
scalar net.node[281].veinsmobility 	totalCO2Emission 	84.516972204075
scalar net.node[149].appl 	messagesReceived:sum 	0
scalar net.node[149].appl 	messagesTransmitted:sum 	0
scalar net.node[149].appl 	duplicatedMessages:sum 	0
scalar net.node[149].nic.phy80211p 	busyTime 	0
scalar net.node[149].nic.mac1609_4 	ReceivedUnicastPackets 	0
scalar net.node[149].nic.mac1609_4 	ReceivedBroadcasts 	0
scalar net.node[149].nic.mac1609_4 	SentPackets 	0
scalar net.node[149].nic.mac1609_4 	SNIRLostPackets 	0
scalar net.node[149].nic.mac1609_4 	RXTXLostPackets 	0
scalar net.node[149].nic.mac1609_4 	TotalLostPackets 	0
scalar net.node[149].nic.mac1609_4 	DroppedPacketsInMac 	0
scalar net.node[149].nic.mac1609_4 	TooLittleTime 	0
scalar net.node[149].nic.mac1609_4 	TimesIntoBackoff 	0
scalar net.node[149].nic.mac1609_4 	SlotsBackoff 	0
scalar net.node[149].nic.mac1609_4 	NumInternalContention 	0
scalar net.node[149].nic.mac1609_4 	totalBusyTime 	0
scalar net.node[149].veinsmobility 	startTime 	299
scalar net.node[149].veinsmobility 	totalTime 	31.8
scalar net.node[149].veinsmobility 	stopTime 	330.9
scalar net.node[149].veinsmobility 	minSpeed 	3.1242454476923
scalar net.node[149].veinsmobility 	maxSpeed 	13.89818728186
scalar net.node[149].veinsmobility 	totalDistance 	347.66092800982
scalar net.node[149].veinsmobility 	totalCO2Emission 	102.98012275096
scalar net.node[104].appl 	messagesReceived:sum 	0
scalar net.node[104].appl 	messagesTransmitted:sum 	0
scalar net.node[104].appl 	duplicatedMessages:sum 	0
scalar net.node[104].nic.phy80211p 	busyTime 	0
scalar net.node[104].nic.mac1609_4 	ReceivedUnicastPackets 	0
scalar net.node[104].nic.mac1609_4 	ReceivedBroadcasts 	0
scalar net.node[104].nic.mac1609_4 	SentPackets 	0
scalar net.node[104].nic.mac1609_4 	SNIRLostPackets 	0
scalar net.node[104].nic.mac1609_4 	RXTXLostPackets 	0
scalar net.node[104].nic.mac1609_4 	TotalLostPackets 	0
scalar net.node[104].nic.mac1609_4 	DroppedPacketsInMac 	0
scalar net.node[104].nic.mac1609_4 	TooLittleTime 	0
scalar net.node[104].nic.mac1609_4 	TimesIntoBackoff 	0
scalar net.node[104].nic.mac1609_4 	SlotsBackoff 	0
scalar net.node[104].nic.mac1609_4 	NumInternalContention 	0
scalar net.node[104].nic.mac1609_4 	totalBusyTime 	0
scalar net.node[104].veinsmobility 	startTime 	299
scalar net.node[104].veinsmobility 	totalTime 	31.9
scalar net.node[104].veinsmobility 	stopTime 	331
scalar net.node[104].veinsmobility 	minSpeed 	3.0902750678757
scalar net.node[104].veinsmobility 	maxSpeed 	13.898657127331
scalar net.node[104].veinsmobility 	totalDistance 	397.12561668009
scalar net.node[104].veinsmobility 	totalCO2Emission 	82.895904808564
scalar net.node[62].appl 	messagesReceived:sum 	0
scalar net.node[62].appl 	messagesTransmitted:sum 	0
scalar net.node[62].appl 	duplicatedMessages:sum 	0
scalar net.node[62].nic.phy80211p 	busyTime 	0
scalar net.node[62].nic.mac1609_4 	ReceivedUnicastPackets 	0
scalar net.node[62].nic.mac1609_4 	ReceivedBroadcasts 	0
scalar net.node[62].nic.mac1609_4 	SentPackets 	0
scalar net.node[62].nic.mac1609_4 	SNIRLostPackets 	0
scalar net.node[62].nic.mac1609_4 	RXTXLostPackets 	0
scalar net.node[62].nic.mac1609_4 	TotalLostPackets 	0
scalar net.node[62].nic.mac1609_4 	DroppedPacketsInMac 	0
scalar net.node[62].nic.mac1609_4 	TooLittleTime 	0
scalar net.node[62].nic.mac1609_4 	TimesIntoBackoff 	0
scalar net.node[62].nic.mac1609_4 	SlotsBackoff 	0
scalar net.node[62].nic.mac1609_4 	NumInternalContention 	0
scalar net.node[62].nic.mac1609_4 	totalBusyTime 	0
scalar net.node[62].veinsmobility 	startTime 	299
scalar net.node[62].veinsmobility 	totalTime 	32.4
scalar net.node[62].veinsmobility 	stopTime 	331.5
scalar net.node[62].veinsmobility 	minSpeed 	3.0219080510208
scalar net.node[62].veinsmobility 	maxSpeed 	13.898709430814
scalar net.node[62].veinsmobility 	totalDistance 	398.48433863001
scalar net.node[62].veinsmobility 	totalCO2Emission 	89.337063509895
scalar net.node[52].appl 	messagesReceived:sum 	7
scalar net.node[52].appl 	messagesTransmitted:sum 	1
scalar net.node[52].appl 	duplicatedMessages:sum 	6
scalar net.node[52].nic.phy80211p 	busyTime 	1.7230769230769e-05
scalar net.node[52].nic.mac1609_4 	ReceivedUnicastPackets 	0
scalar net.node[52].nic.mac1609_4 	ReceivedBroadcasts 	7
scalar net.node[52].nic.mac1609_4 	SentPackets 	1
scalar net.node[52].nic.mac1609_4 	SNIRLostPackets 	0
scalar net.node[52].nic.mac1609_4 	RXTXLostPackets 	0
scalar net.node[52].nic.mac1609_4 	TotalLostPackets 	0
scalar net.node[52].nic.mac1609_4 	DroppedPacketsInMac 	0
scalar net.node[52].nic.mac1609_4 	TooLittleTime 	0
scalar net.node[52].nic.mac1609_4 	TimesIntoBackoff 	1
scalar net.node[52].nic.mac1609_4 	SlotsBackoff 	0
scalar net.node[52].nic.mac1609_4 	NumInternalContention 	0
scalar net.node[52].nic.mac1609_4 	totalBusyTime 	0.000641
scalar net.node[52].veinsmobility 	startTime 	299
scalar net.node[52].veinsmobility 	totalTime 	32.4
scalar net.node[52].veinsmobility 	stopTime 	331.5
scalar net.node[52].veinsmobility 	minSpeed 	2.970312821516
scalar net.node[52].veinsmobility 	maxSpeed 	13.899392246438
scalar net.node[52].veinsmobility 	totalDistance 	302.51869290313
scalar net.node[52].veinsmobility 	totalCO2Emission 	121.57687855906
scalar net.node[24].appl 	messagesReceived:sum 	0
scalar net.node[24].appl 	messagesTransmitted:sum 	0
scalar net.node[24].appl 	duplicatedMessages:sum 	0
scalar net.node[24].nic.phy80211p 	busyTime 	0
scalar net.node[24].nic.mac1609_4 	ReceivedUnicastPackets 	0
scalar net.node[24].nic.mac1609_4 	ReceivedBroadcasts 	0
scalar net.node[24].nic.mac1609_4 	SentPackets 	0
scalar net.node[24].nic.mac1609_4 	SNIRLostPackets 	0
scalar net.node[24].nic.mac1609_4 	RXTXLostPackets 	0
scalar net.node[24].nic.mac1609_4 	TotalLostPackets 	0
scalar net.node[24].nic.mac1609_4 	DroppedPacketsInMac 	0
scalar net.node[24].nic.mac1609_4 	TooLittleTime 	0
scalar net.node[24].nic.mac1609_4 	TimesIntoBackoff 	0
scalar net.node[24].nic.mac1609_4 	SlotsBackoff 	0
scalar net.node[24].nic.mac1609_4 	NumInternalContention 	0
scalar net.node[24].nic.mac1609_4 	totalBusyTime 	0
scalar net.node[24].veinsmobility 	startTime 	299
scalar net.node[24].veinsmobility 	totalTime 	34.7
scalar net.node[24].veinsmobility 	stopTime 	333.8
scalar net.node[24].veinsmobility 	minSpeed 	3.1246365555638
scalar net.node[24].veinsmobility 	maxSpeed 	13.899615710578
scalar net.node[24].veinsmobility 	totalDistance 	434.00278263739
scalar net.node[24].veinsmobility 	totalCO2Emission 	89.664575947589
scalar net.node[34].appl 	messagesReceived:sum 	0
scalar net.node[34].appl 	messagesTransmitted:sum 	0
scalar net.node[34].appl 	duplicatedMessages:sum 	0
scalar net.node[34].nic.phy80211p 	busyTime 	0
scalar net.node[34].nic.mac1609_4 	ReceivedUnicastPackets 	0
scalar net.node[34].nic.mac1609_4 	ReceivedBroadcasts 	0
scalar net.node[34].nic.mac1609_4 	SentPackets 	0
scalar net.node[34].nic.mac1609_4 	SNIRLostPackets 	0
scalar net.node[34].nic.mac1609_4 	RXTXLostPackets 	0
scalar net.node[34].nic.mac1609_4 	TotalLostPackets 	0
scalar net.node[34].nic.mac1609_4 	DroppedPacketsInMac 	0
scalar net.node[34].nic.mac1609_4 	TooLittleTime 	0
scalar net.node[34].nic.mac1609_4 	TimesIntoBackoff 	0
scalar net.node[34].nic.mac1609_4 	SlotsBackoff 	0
scalar net.node[34].nic.mac1609_4 	NumInternalContention 	0
scalar net.node[34].nic.mac1609_4 	totalBusyTime 	0
scalar net.node[34].veinsmobility 	startTime 	299
scalar net.node[34].veinsmobility 	totalTime 	35.9
scalar net.node[34].veinsmobility 	stopTime 	335
scalar net.node[34].veinsmobility 	minSpeed 	3.104639576985
scalar net.node[34].veinsmobility 	maxSpeed 	13.899370422141
scalar net.node[34].veinsmobility 	totalDistance 	450.92867303259
scalar net.node[34].veinsmobility 	totalCO2Emission 	92.162965940289
scalar net.node[4].appl 	messagesReceived:sum 	0
scalar net.node[4].appl 	messagesTransmitted:sum 	0
scalar net.node[4].appl 	duplicatedMessages:sum 	0
scalar net.node[4].nic.phy80211p 	busyTime 	0
scalar net.node[4].nic.mac1609_4 	ReceivedUnicastPackets 	0
scalar net.node[4].nic.mac1609_4 	ReceivedBroadcasts 	0
scalar net.node[4].nic.mac1609_4 	SentPackets 	0
scalar net.node[4].nic.mac1609_4 	SNIRLostPackets 	0
scalar net.node[4].nic.mac1609_4 	RXTXLostPackets 	0
scalar net.node[4].nic.mac1609_4 	TotalLostPackets 	0
scalar net.node[4].nic.mac1609_4 	DroppedPacketsInMac 	0
scalar net.node[4].nic.mac1609_4 	TooLittleTime 	0
scalar net.node[4].nic.mac1609_4 	TimesIntoBackoff 	0
scalar net.node[4].nic.mac1609_4 	SlotsBackoff 	0
scalar net.node[4].nic.mac1609_4 	NumInternalContention 	0
scalar net.node[4].nic.mac1609_4 	totalBusyTime 	0
scalar net.node[4].veinsmobility 	startTime 	299
scalar net.node[4].veinsmobility 	totalTime 	36.6
scalar net.node[4].veinsmobility 	stopTime 	335.7
scalar net.node[4].veinsmobility 	minSpeed 	3.1255088673593
scalar net.node[4].veinsmobility 	maxSpeed 	13.899748166716
scalar net.node[4].veinsmobility 	totalDistance 	463.34398283318
scalar net.node[4].veinsmobility 	totalCO2Emission 	93.426748393554
scalar net.node[14].appl 	messagesReceived:sum 	0
scalar net.node[14].appl 	messagesTransmitted:sum 	0
scalar net.node[14].appl 	duplicatedMessages:sum 	0
scalar net.node[14].nic.phy80211p 	busyTime 	0
scalar net.node[14].nic.mac1609_4 	ReceivedUnicastPackets 	0
scalar net.node[14].nic.mac1609_4 	ReceivedBroadcasts 	0
scalar net.node[14].nic.mac1609_4 	SentPackets 	0
scalar net.node[14].nic.mac1609_4 	SNIRLostPackets 	0
scalar net.node[14].nic.mac1609_4 	RXTXLostPackets 	0
scalar net.node[14].nic.mac1609_4 	TotalLostPackets 	0
scalar net.node[14].nic.mac1609_4 	DroppedPacketsInMac 	0
scalar net.node[14].nic.mac1609_4 	TooLittleTime 	0
scalar net.node[14].nic.mac1609_4 	TimesIntoBackoff 	0
scalar net.node[14].nic.mac1609_4 	SlotsBackoff 	0
scalar net.node[14].nic.mac1609_4 	NumInternalContention 	0
scalar net.node[14].nic.mac1609_4 	totalBusyTime 	0
scalar net.node[14].veinsmobility 	startTime 	299
scalar net.node[14].veinsmobility 	totalTime 	38.6
scalar net.node[14].veinsmobility 	stopTime 	337.7
scalar net.node[14].veinsmobility 	minSpeed 	3.1262028094965
scalar net.node[14].veinsmobility 	maxSpeed 	12.958860040057
scalar net.node[14].veinsmobility 	totalDistance 	457.03280974155
scalar net.node[14].veinsmobility 	totalCO2Emission 	97.594157453987
scalar net.node[48].appl 	messagesReceived:sum 	0
scalar net.node[48].appl 	messagesTransmitted:sum 	0
scalar net.node[48].appl 	duplicatedMessages:sum 	0
scalar net.node[48].nic.phy80211p 	busyTime 	0
scalar net.node[48].nic.mac1609_4 	ReceivedUnicastPackets 	0
scalar net.node[48].nic.mac1609_4 	ReceivedBroadcasts 	0
scalar net.node[48].nic.mac1609_4 	SentPackets 	0
scalar net.node[48].nic.mac1609_4 	SNIRLostPackets 	0
scalar net.node[48].nic.mac1609_4 	RXTXLostPackets 	0
scalar net.node[48].nic.mac1609_4 	TotalLostPackets 	0
scalar net.node[48].nic.mac1609_4 	DroppedPacketsInMac 	0
scalar net.node[48].nic.mac1609_4 	TooLittleTime 	0
scalar net.node[48].nic.mac1609_4 	TimesIntoBackoff 	0
scalar net.node[48].nic.mac1609_4 	SlotsBackoff 	0
scalar net.node[48].nic.mac1609_4 	NumInternalContention 	0
scalar net.node[48].nic.mac1609_4 	totalBusyTime 	0
scalar net.node[48].veinsmobility 	startTime 	299
scalar net.node[48].veinsmobility 	totalTime 	38.8
scalar net.node[48].veinsmobility 	stopTime 	337.9
scalar net.node[48].veinsmobility 	minSpeed 	3.0333741179485
scalar net.node[48].veinsmobility 	maxSpeed 	13.899179438326
scalar net.node[48].veinsmobility 	totalDistance 	430.09589583012
scalar net.node[48].veinsmobility 	totalCO2Emission 	115.86118395428
scalar net.node[32].appl 	messagesReceived:sum 	0
scalar net.node[32].appl 	messagesTransmitted:sum 	0
scalar net.node[32].appl 	duplicatedMessages:sum 	0
scalar net.node[32].nic.phy80211p 	busyTime 	0
scalar net.node[32].nic.mac1609_4 	ReceivedUnicastPackets 	0
scalar net.node[32].nic.mac1609_4 	ReceivedBroadcasts 	0
scalar net.node[32].nic.mac1609_4 	SentPackets 	0
scalar net.node[32].nic.mac1609_4 	SNIRLostPackets 	0
scalar net.node[32].nic.mac1609_4 	RXTXLostPackets 	0
scalar net.node[32].nic.mac1609_4 	TotalLostPackets 	0
scalar net.node[32].nic.mac1609_4 	DroppedPacketsInMac 	0
scalar net.node[32].nic.mac1609_4 	TooLittleTime 	0
scalar net.node[32].nic.mac1609_4 	TimesIntoBackoff 	0
scalar net.node[32].nic.mac1609_4 	SlotsBackoff 	0
scalar net.node[32].nic.mac1609_4 	NumInternalContention 	0
scalar net.node[32].nic.mac1609_4 	totalBusyTime 	0
scalar net.node[32].veinsmobility 	startTime 	299
scalar net.node[32].veinsmobility 	totalTime 	39.3
scalar net.node[32].veinsmobility 	stopTime 	338.4
scalar net.node[32].veinsmobility 	minSpeed 	2.9497964625583
scalar net.node[32].veinsmobility 	maxSpeed 	11.239439186584
scalar net.node[32].veinsmobility 	totalDistance 	320.6584288355
scalar net.node[32].veinsmobility 	totalCO2Emission 	113.25345650217
scalar net.node[97].appl 	messagesReceived:sum 	0
scalar net.node[97].appl 	messagesTransmitted:sum 	0
scalar net.node[97].appl 	duplicatedMessages:sum 	0
scalar net.node[97].nic.phy80211p 	busyTime 	0
scalar net.node[97].nic.mac1609_4 	ReceivedUnicastPackets 	0
scalar net.node[97].nic.mac1609_4 	ReceivedBroadcasts 	0
scalar net.node[97].nic.mac1609_4 	SentPackets 	0
scalar net.node[97].nic.mac1609_4 	SNIRLostPackets 	0
scalar net.node[97].nic.mac1609_4 	RXTXLostPackets 	0
scalar net.node[97].nic.mac1609_4 	TotalLostPackets 	0
scalar net.node[97].nic.mac1609_4 	DroppedPacketsInMac 	0
scalar net.node[97].nic.mac1609_4 	TooLittleTime 	0
scalar net.node[97].nic.mac1609_4 	TimesIntoBackoff 	0
scalar net.node[97].nic.mac1609_4 	SlotsBackoff 	0
scalar net.node[97].nic.mac1609_4 	NumInternalContention 	0
scalar net.node[97].nic.mac1609_4 	totalBusyTime 	0
scalar net.node[97].veinsmobility 	startTime 	299
scalar net.node[97].veinsmobility 	totalTime 	39.9
scalar net.node[97].veinsmobility 	stopTime 	339
scalar net.node[97].veinsmobility 	minSpeed 	0.3978986203537
scalar net.node[97].veinsmobility 	maxSpeed 	13.899937007456
scalar net.node[97].veinsmobility 	totalDistance 	409.80440294142
scalar net.node[97].veinsmobility 	totalCO2Emission 	117.43350598408
scalar net.node[105].appl 	messagesReceived:sum 	1
scalar net.node[105].appl 	messagesTransmitted:sum 	1
scalar net.node[105].appl 	duplicatedMessages:sum 	0
scalar net.node[105].nic.phy80211p 	busyTime 	1.965601965602e-06
scalar net.node[105].nic.mac1609_4 	ReceivedUnicastPackets 	0
scalar net.node[105].nic.mac1609_4 	ReceivedBroadcasts 	1
scalar net.node[105].nic.mac1609_4 	SentPackets 	1
scalar net.node[105].nic.mac1609_4 	SNIRLostPackets 	0
scalar net.node[105].nic.mac1609_4 	RXTXLostPackets 	0
scalar net.node[105].nic.mac1609_4 	TotalLostPackets 	0
scalar net.node[105].nic.mac1609_4 	DroppedPacketsInMac 	0
scalar net.node[105].nic.mac1609_4 	TooLittleTime 	0
scalar net.node[105].nic.mac1609_4 	TimesIntoBackoff 	1
scalar net.node[105].nic.mac1609_4 	SlotsBackoff 	1
scalar net.node[105].nic.mac1609_4 	NumInternalContention 	0
scalar net.node[105].nic.mac1609_4 	totalBusyTime 	0.000161
scalar net.node[105].veinsmobility 	startTime 	299
scalar net.node[105].veinsmobility 	totalTime 	40.6
scalar net.node[105].veinsmobility 	stopTime 	339.7
scalar net.node[105].veinsmobility 	minSpeed 	3.1172895116816
scalar net.node[105].veinsmobility 	maxSpeed 	13.899668838706
scalar net.node[105].veinsmobility 	totalDistance 	507.63630970798
scalar net.node[105].veinsmobility 	totalCO2Emission 	116.11268999022
scalar net.node[200].appl 	messagesReceived:sum 	0
scalar net.node[200].appl 	messagesTransmitted:sum 	0
scalar net.node[200].appl 	duplicatedMessages:sum 	0
scalar net.node[200].nic.phy80211p 	busyTime 	0
scalar net.node[200].nic.mac1609_4 	ReceivedUnicastPackets 	0
scalar net.node[200].nic.mac1609_4 	ReceivedBroadcasts 	0
scalar net.node[200].nic.mac1609_4 	SentPackets 	0
scalar net.node[200].nic.mac1609_4 	SNIRLostPackets 	0
scalar net.node[200].nic.mac1609_4 	RXTXLostPackets 	0
scalar net.node[200].nic.mac1609_4 	TotalLostPackets 	0
scalar net.node[200].nic.mac1609_4 	DroppedPacketsInMac 	0
scalar net.node[200].nic.mac1609_4 	TooLittleTime 	0
scalar net.node[200].nic.mac1609_4 	TimesIntoBackoff 	0
scalar net.node[200].nic.mac1609_4 	SlotsBackoff 	0
scalar net.node[200].nic.mac1609_4 	NumInternalContention 	0
scalar net.node[200].nic.mac1609_4 	totalBusyTime 	0
scalar net.node[200].veinsmobility 	startTime 	299
scalar net.node[200].veinsmobility 	totalTime 	40.7
scalar net.node[200].veinsmobility 	stopTime 	339.8
scalar net.node[200].veinsmobility 	minSpeed 	2.9558883837049
scalar net.node[200].veinsmobility 	maxSpeed 	13.898934824266
scalar net.node[200].veinsmobility 	totalDistance 	456.89438538776
scalar net.node[200].veinsmobility 	totalCO2Emission 	119.74066213016
scalar net.node[109].appl 	messagesReceived:sum 	0
scalar net.node[109].appl 	messagesTransmitted:sum 	0
scalar net.node[109].appl 	duplicatedMessages:sum 	0
scalar net.node[109].nic.phy80211p 	busyTime 	0
scalar net.node[109].nic.mac1609_4 	ReceivedUnicastPackets 	0
scalar net.node[109].nic.mac1609_4 	ReceivedBroadcasts 	0
scalar net.node[109].nic.mac1609_4 	SentPackets 	0
scalar net.node[109].nic.mac1609_4 	SNIRLostPackets 	0
scalar net.node[109].nic.mac1609_4 	RXTXLostPackets 	0
scalar net.node[109].nic.mac1609_4 	TotalLostPackets 	0
scalar net.node[109].nic.mac1609_4 	DroppedPacketsInMac 	0
scalar net.node[109].nic.mac1609_4 	TooLittleTime 	0
scalar net.node[109].nic.mac1609_4 	TimesIntoBackoff 	0
scalar net.node[109].nic.mac1609_4 	SlotsBackoff 	0
scalar net.node[109].nic.mac1609_4 	NumInternalContention 	0
scalar net.node[109].nic.mac1609_4 	totalBusyTime 	0
scalar net.node[109].veinsmobility 	startTime 	299
scalar net.node[109].veinsmobility 	totalTime 	44.6
scalar net.node[109].veinsmobility 	stopTime 	343.7
scalar net.node[109].veinsmobility 	minSpeed 	2.9073968545947
scalar net.node[109].veinsmobility 	maxSpeed 	13.899777196748
scalar net.node[109].veinsmobility 	totalDistance 	549.94522962422
scalar net.node[109].veinsmobility 	totalCO2Emission 	130.50667220197
scalar net.node[297].appl 	messagesReceived:sum 	0
scalar net.node[297].appl 	messagesTransmitted:sum 	0
scalar net.node[297].appl 	duplicatedMessages:sum 	0
scalar net.node[297].nic.phy80211p 	busyTime 	0
scalar net.node[297].nic.mac1609_4 	ReceivedUnicastPackets 	0
scalar net.node[297].nic.mac1609_4 	ReceivedBroadcasts 	0
scalar net.node[297].nic.mac1609_4 	SentPackets 	0
scalar net.node[297].nic.mac1609_4 	SNIRLostPackets 	0
scalar net.node[297].nic.mac1609_4 	RXTXLostPackets 	0
scalar net.node[297].nic.mac1609_4 	TotalLostPackets 	0
scalar net.node[297].nic.mac1609_4 	DroppedPacketsInMac 	0
scalar net.node[297].nic.mac1609_4 	TooLittleTime 	0
scalar net.node[297].nic.mac1609_4 	TimesIntoBackoff 	0
scalar net.node[297].nic.mac1609_4 	SlotsBackoff 	0
scalar net.node[297].nic.mac1609_4 	NumInternalContention 	0
scalar net.node[297].nic.mac1609_4 	totalBusyTime 	0
scalar net.node[297].veinsmobility 	startTime 	299
scalar net.node[297].veinsmobility 	totalTime 	46.4
scalar net.node[297].veinsmobility 	stopTime 	345.5
scalar net.node[297].veinsmobility 	minSpeed 	3.0478187294239
scalar net.node[297].veinsmobility 	maxSpeed 	13.899916384368
scalar net.node[297].veinsmobility 	totalDistance 	464.64203395572
scalar net.node[297].veinsmobility 	totalCO2Emission 	150.07052940624
scalar net.node[94].appl 	messagesReceived:sum 	0
scalar net.node[94].appl 	messagesTransmitted:sum 	0
scalar net.node[94].appl 	duplicatedMessages:sum 	0
scalar net.node[94].nic.phy80211p 	busyTime 	0
scalar net.node[94].nic.mac1609_4 	ReceivedUnicastPackets 	0
scalar net.node[94].nic.mac1609_4 	ReceivedBroadcasts 	0
scalar net.node[94].nic.mac1609_4 	SentPackets 	0
scalar net.node[94].nic.mac1609_4 	SNIRLostPackets 	0
scalar net.node[94].nic.mac1609_4 	RXTXLostPackets 	0
scalar net.node[94].nic.mac1609_4 	TotalLostPackets 	0
scalar net.node[94].nic.mac1609_4 	DroppedPacketsInMac 	0
scalar net.node[94].nic.mac1609_4 	TooLittleTime 	0
scalar net.node[94].nic.mac1609_4 	TimesIntoBackoff 	0
scalar net.node[94].nic.mac1609_4 	SlotsBackoff 	0
scalar net.node[94].nic.mac1609_4 	NumInternalContention 	0
scalar net.node[94].nic.mac1609_4 	totalBusyTime 	0
scalar net.node[94].veinsmobility 	startTime 	299
scalar net.node[94].veinsmobility 	totalTime 	50.4
scalar net.node[94].veinsmobility 	stopTime 	349.5
scalar net.node[94].veinsmobility 	minSpeed 	3.0197246537386
scalar net.node[94].veinsmobility 	maxSpeed 	13.899848363819
scalar net.node[94].veinsmobility 	totalDistance 	591.85941282301
scalar net.node[94].veinsmobility 	totalCO2Emission 	154.45580597664
scalar net.node[288].appl 	messagesReceived:sum 	0
scalar net.node[288].appl 	messagesTransmitted:sum 	0
scalar net.node[288].appl 	duplicatedMessages:sum 	0
scalar net.node[288].nic.phy80211p 	busyTime 	0
scalar net.node[288].nic.mac1609_4 	ReceivedUnicastPackets 	0
scalar net.node[288].nic.mac1609_4 	ReceivedBroadcasts 	0
scalar net.node[288].nic.mac1609_4 	SentPackets 	0
scalar net.node[288].nic.mac1609_4 	SNIRLostPackets 	0
scalar net.node[288].nic.mac1609_4 	RXTXLostPackets 	0
scalar net.node[288].nic.mac1609_4 	TotalLostPackets 	0
scalar net.node[288].nic.mac1609_4 	DroppedPacketsInMac 	0
scalar net.node[288].nic.mac1609_4 	TooLittleTime 	0
scalar net.node[288].nic.mac1609_4 	TimesIntoBackoff 	0
scalar net.node[288].nic.mac1609_4 	SlotsBackoff 	0
scalar net.node[288].nic.mac1609_4 	NumInternalContention 	0
scalar net.node[288].nic.mac1609_4 	totalBusyTime 	0
scalar net.node[288].veinsmobility 	startTime 	299
scalar net.node[288].veinsmobility 	totalTime 	51.3
scalar net.node[288].veinsmobility 	stopTime 	350.4
scalar net.node[288].veinsmobility 	minSpeed 	2.9636281192865
scalar net.node[288].veinsmobility 	maxSpeed 	13.899974095901
scalar net.node[288].veinsmobility 	totalDistance 	598.23579195197
scalar net.node[288].veinsmobility 	totalCO2Emission 	157.84891397293
scalar net.node[289].appl 	messagesReceived:sum 	0
scalar net.node[289].appl 	messagesTransmitted:sum 	0
scalar net.node[289].appl 	duplicatedMessages:sum 	0
scalar net.node[289].nic.phy80211p 	busyTime 	0
scalar net.node[289].nic.mac1609_4 	ReceivedUnicastPackets 	0
scalar net.node[289].nic.mac1609_4 	ReceivedBroadcasts 	0
scalar net.node[289].nic.mac1609_4 	SentPackets 	0
scalar net.node[289].nic.mac1609_4 	SNIRLostPackets 	0
scalar net.node[289].nic.mac1609_4 	RXTXLostPackets 	0
scalar net.node[289].nic.mac1609_4 	TotalLostPackets 	0
scalar net.node[289].nic.mac1609_4 	DroppedPacketsInMac 	0
scalar net.node[289].nic.mac1609_4 	TooLittleTime 	0
scalar net.node[289].nic.mac1609_4 	TimesIntoBackoff 	0
scalar net.node[289].nic.mac1609_4 	SlotsBackoff 	0
scalar net.node[289].nic.mac1609_4 	NumInternalContention 	0
scalar net.node[289].nic.mac1609_4 	totalBusyTime 	0
scalar net.node[289].veinsmobility 	startTime 	299
scalar net.node[289].veinsmobility 	totalTime 	51.4
scalar net.node[289].veinsmobility 	stopTime 	350.5
scalar net.node[289].veinsmobility 	minSpeed 	2.9097430039675
scalar net.node[289].veinsmobility 	maxSpeed 	13.899864085065
scalar net.node[289].veinsmobility 	totalDistance 	607.53395575082
scalar net.node[289].veinsmobility 	totalCO2Emission 	145.29123032393
scalar net.node[286].appl 	messagesReceived:sum 	0
scalar net.node[286].appl 	messagesTransmitted:sum 	0
scalar net.node[286].appl 	duplicatedMessages:sum 	0
scalar net.node[286].nic.phy80211p 	busyTime 	0
scalar net.node[286].nic.mac1609_4 	ReceivedUnicastPackets 	0
scalar net.node[286].nic.mac1609_4 	ReceivedBroadcasts 	0
scalar net.node[286].nic.mac1609_4 	SentPackets 	0
scalar net.node[286].nic.mac1609_4 	SNIRLostPackets 	0
scalar net.node[286].nic.mac1609_4 	RXTXLostPackets 	0
scalar net.node[286].nic.mac1609_4 	TotalLostPackets 	0
scalar net.node[286].nic.mac1609_4 	DroppedPacketsInMac 	0
scalar net.node[286].nic.mac1609_4 	TooLittleTime 	0
scalar net.node[286].nic.mac1609_4 	TimesIntoBackoff 	0
scalar net.node[286].nic.mac1609_4 	SlotsBackoff 	0
scalar net.node[286].nic.mac1609_4 	NumInternalContention 	0
scalar net.node[286].nic.mac1609_4 	totalBusyTime 	0
scalar net.node[286].veinsmobility 	startTime 	299
scalar net.node[286].veinsmobility 	totalTime 	52.8
scalar net.node[286].veinsmobility 	stopTime 	351.9
scalar net.node[286].veinsmobility 	minSpeed 	3.0161681666264
scalar net.node[286].veinsmobility 	maxSpeed 	12.799406614545
scalar net.node[286].veinsmobility 	totalDistance 	589.96689680108
scalar net.node[286].veinsmobility 	totalCO2Emission 	142.76332253704
scalar net.node[92].appl 	messagesReceived:sum 	5
scalar net.node[92].appl 	messagesTransmitted:sum 	1
scalar net.node[92].appl 	duplicatedMessages:sum 	4
scalar net.node[92].nic.phy80211p 	busyTime 	7.4211502782931e-06
scalar net.node[92].nic.mac1609_4 	ReceivedUnicastPackets 	0
scalar net.node[92].nic.mac1609_4 	ReceivedBroadcasts 	5
scalar net.node[92].nic.mac1609_4 	SentPackets 	1
scalar net.node[92].nic.mac1609_4 	SNIRLostPackets 	0
scalar net.node[92].nic.mac1609_4 	RXTXLostPackets 	0
scalar net.node[92].nic.mac1609_4 	TotalLostPackets 	0
scalar net.node[92].nic.mac1609_4 	DroppedPacketsInMac 	0
scalar net.node[92].nic.mac1609_4 	TooLittleTime 	0
scalar net.node[92].nic.mac1609_4 	TimesIntoBackoff 	1
scalar net.node[92].nic.mac1609_4 	SlotsBackoff 	2
scalar net.node[92].nic.mac1609_4 	NumInternalContention 	0
scalar net.node[92].nic.mac1609_4 	totalBusyTime 	0.000481
scalar net.node[92].veinsmobility 	startTime 	299
scalar net.node[92].veinsmobility 	totalTime 	53.8
scalar net.node[92].veinsmobility 	stopTime 	352.9
scalar net.node[92].veinsmobility 	minSpeed 	2.961841935801
scalar net.node[92].veinsmobility 	maxSpeed 	13.899787331075
scalar net.node[92].veinsmobility 	totalDistance 	643.03188910204
scalar net.node[92].veinsmobility 	totalCO2Emission 	150.98421592162
scalar net.node[9].appl 	messagesReceived:sum 	0
scalar net.node[9].appl 	messagesTransmitted:sum 	0
scalar net.node[9].appl 	duplicatedMessages:sum 	0
scalar net.node[9].nic.phy80211p 	busyTime 	0
scalar net.node[9].nic.mac1609_4 	ReceivedUnicastPackets 	0
scalar net.node[9].nic.mac1609_4 	ReceivedBroadcasts 	0
scalar net.node[9].nic.mac1609_4 	SentPackets 	0
scalar net.node[9].nic.mac1609_4 	SNIRLostPackets 	0
scalar net.node[9].nic.mac1609_4 	RXTXLostPackets 	0
scalar net.node[9].nic.mac1609_4 	TotalLostPackets 	0
scalar net.node[9].nic.mac1609_4 	DroppedPacketsInMac 	0
scalar net.node[9].nic.mac1609_4 	TooLittleTime 	0
scalar net.node[9].nic.mac1609_4 	TimesIntoBackoff 	0
scalar net.node[9].nic.mac1609_4 	SlotsBackoff 	0
scalar net.node[9].nic.mac1609_4 	NumInternalContention 	0
scalar net.node[9].nic.mac1609_4 	totalBusyTime 	0
scalar net.node[9].veinsmobility 	startTime 	299
scalar net.node[9].veinsmobility 	totalTime 	53.9
scalar net.node[9].veinsmobility 	stopTime 	353
scalar net.node[9].veinsmobility 	minSpeed 	2.9572057853371
scalar net.node[9].veinsmobility 	maxSpeed 	13.898957269694
scalar net.node[9].veinsmobility 	totalDistance 	476.81029355997
scalar net.node[9].veinsmobility 	totalCO2Emission 	209.32229006316
scalar net.node[155].appl 	messagesReceived:sum 	0
scalar net.node[155].appl 	messagesTransmitted:sum 	0
scalar net.node[155].appl 	duplicatedMessages:sum 	0
scalar net.node[155].nic.phy80211p 	busyTime 	0
scalar net.node[155].nic.mac1609_4 	ReceivedUnicastPackets 	0
scalar net.node[155].nic.mac1609_4 	ReceivedBroadcasts 	0
scalar net.node[155].nic.mac1609_4 	SentPackets 	0
scalar net.node[155].nic.mac1609_4 	SNIRLostPackets 	0
scalar net.node[155].nic.mac1609_4 	RXTXLostPackets 	0
scalar net.node[155].nic.mac1609_4 	TotalLostPackets 	0
scalar net.node[155].nic.mac1609_4 	DroppedPacketsInMac 	0
scalar net.node[155].nic.mac1609_4 	TooLittleTime 	0
scalar net.node[155].nic.mac1609_4 	TimesIntoBackoff 	0
scalar net.node[155].nic.mac1609_4 	SlotsBackoff 	0
scalar net.node[155].nic.mac1609_4 	NumInternalContention 	0
scalar net.node[155].nic.mac1609_4 	totalBusyTime 	0
scalar net.node[155].veinsmobility 	startTime 	299
scalar net.node[155].veinsmobility 	totalTime 	56
scalar net.node[155].veinsmobility 	stopTime 	355.1
scalar net.node[155].veinsmobility 	minSpeed 	3.0743709138269
scalar net.node[155].veinsmobility 	maxSpeed 	13.899302824792
scalar net.node[155].veinsmobility 	totalDistance 	643.67106965596
scalar net.node[155].veinsmobility 	totalCO2Emission 	168.21073788868
scalar net.node[279].appl 	messagesReceived:sum 	0
scalar net.node[279].appl 	messagesTransmitted:sum 	0
scalar net.node[279].appl 	duplicatedMessages:sum 	0
scalar net.node[279].nic.phy80211p 	busyTime 	0
scalar net.node[279].nic.mac1609_4 	ReceivedUnicastPackets 	0
scalar net.node[279].nic.mac1609_4 	ReceivedBroadcasts 	0
scalar net.node[279].nic.mac1609_4 	SentPackets 	0
scalar net.node[279].nic.mac1609_4 	SNIRLostPackets 	0
scalar net.node[279].nic.mac1609_4 	RXTXLostPackets 	0
scalar net.node[279].nic.mac1609_4 	TotalLostPackets 	0
scalar net.node[279].nic.mac1609_4 	DroppedPacketsInMac 	0
scalar net.node[279].nic.mac1609_4 	TooLittleTime 	0
scalar net.node[279].nic.mac1609_4 	TimesIntoBackoff 	0
scalar net.node[279].nic.mac1609_4 	SlotsBackoff 	0
scalar net.node[279].nic.mac1609_4 	NumInternalContention 	0
scalar net.node[279].nic.mac1609_4 	totalBusyTime 	0
scalar net.node[279].veinsmobility 	startTime 	299
scalar net.node[279].veinsmobility 	totalTime 	57.7
scalar net.node[279].veinsmobility 	stopTime 	356.8
scalar net.node[279].veinsmobility 	minSpeed 	3.03968539265
scalar net.node[279].veinsmobility 	maxSpeed 	13.899860137338
scalar net.node[279].veinsmobility 	totalDistance 	707.6322349596
scalar net.node[279].veinsmobility 	totalCO2Emission 	154.28909461431
scalar net.node[179].appl 	messagesReceived:sum 	2
scalar net.node[179].appl 	messagesTransmitted:sum 	1
scalar net.node[179].appl 	duplicatedMessages:sum 	1
scalar net.node[179].nic.phy80211p 	busyTime 	2.7257240204429e-06
scalar net.node[179].nic.mac1609_4 	ReceivedUnicastPackets 	0
scalar net.node[179].nic.mac1609_4 	ReceivedBroadcasts 	2
scalar net.node[179].nic.mac1609_4 	SentPackets 	1
scalar net.node[179].nic.mac1609_4 	SNIRLostPackets 	0
scalar net.node[179].nic.mac1609_4 	RXTXLostPackets 	0
scalar net.node[179].nic.mac1609_4 	TotalLostPackets 	0
scalar net.node[179].nic.mac1609_4 	DroppedPacketsInMac 	0
scalar net.node[179].nic.mac1609_4 	TooLittleTime 	0
scalar net.node[179].nic.mac1609_4 	TimesIntoBackoff 	1
scalar net.node[179].nic.mac1609_4 	SlotsBackoff 	1
scalar net.node[179].nic.mac1609_4 	NumInternalContention 	0
scalar net.node[179].nic.mac1609_4 	totalBusyTime 	0.000241
scalar net.node[179].veinsmobility 	startTime 	299
scalar net.node[179].veinsmobility 	totalTime 	58.6
scalar net.node[179].veinsmobility 	stopTime 	357.7
scalar net.node[179].veinsmobility 	minSpeed 	1.9915911363112
scalar net.node[179].veinsmobility 	maxSpeed 	13.899349330811
scalar net.node[179].veinsmobility 	totalDistance 	641.50207265292
scalar net.node[179].veinsmobility 	totalCO2Emission 	173.87587864066
scalar net.node[50].appl 	messagesReceived:sum 	0
scalar net.node[50].appl 	messagesTransmitted:sum 	0
scalar net.node[50].appl 	duplicatedMessages:sum 	0
scalar net.node[50].nic.phy80211p 	busyTime 	0
scalar net.node[50].nic.mac1609_4 	ReceivedUnicastPackets 	0
scalar net.node[50].nic.mac1609_4 	ReceivedBroadcasts 	0
scalar net.node[50].nic.mac1609_4 	SentPackets 	0
scalar net.node[50].nic.mac1609_4 	SNIRLostPackets 	0
scalar net.node[50].nic.mac1609_4 	RXTXLostPackets 	0
scalar net.node[50].nic.mac1609_4 	TotalLostPackets 	0
scalar net.node[50].nic.mac1609_4 	DroppedPacketsInMac 	0
scalar net.node[50].nic.mac1609_4 	TooLittleTime 	0
scalar net.node[50].nic.mac1609_4 	TimesIntoBackoff 	0
scalar net.node[50].nic.mac1609_4 	SlotsBackoff 	0
scalar net.node[50].nic.mac1609_4 	NumInternalContention 	0
scalar net.node[50].nic.mac1609_4 	totalBusyTime 	0
scalar net.node[50].veinsmobility 	startTime 	299
scalar net.node[50].veinsmobility 	totalTime 	58.7
scalar net.node[50].veinsmobility 	stopTime 	357.8
scalar net.node[50].veinsmobility 	minSpeed 	2.9453729085006
scalar net.node[50].veinsmobility 	maxSpeed 	13.898744120801
scalar net.node[50].veinsmobility 	totalDistance 	461.64146888401
scalar net.node[50].veinsmobility 	totalCO2Emission 	170.8493755246
scalar net.node[26].appl 	messagesReceived:sum 	0
scalar net.node[26].appl 	messagesTransmitted:sum 	0
scalar net.node[26].appl 	duplicatedMessages:sum 	0
scalar net.node[26].nic.phy80211p 	busyTime 	0
scalar net.node[26].nic.mac1609_4 	ReceivedUnicastPackets 	0
scalar net.node[26].nic.mac1609_4 	ReceivedBroadcasts 	0
scalar net.node[26].nic.mac1609_4 	SentPackets 	0
scalar net.node[26].nic.mac1609_4 	SNIRLostPackets 	0
scalar net.node[26].nic.mac1609_4 	RXTXLostPackets 	0
scalar net.node[26].nic.mac1609_4 	TotalLostPackets 	0
scalar net.node[26].nic.mac1609_4 	DroppedPacketsInMac 	0
scalar net.node[26].nic.mac1609_4 	TooLittleTime 	0
scalar net.node[26].nic.mac1609_4 	TimesIntoBackoff 	0
scalar net.node[26].nic.mac1609_4 	SlotsBackoff 	0
scalar net.node[26].nic.mac1609_4 	NumInternalContention 	0
scalar net.node[26].nic.mac1609_4 	totalBusyTime 	0
scalar net.node[26].veinsmobility 	startTime 	299
scalar net.node[26].veinsmobility 	totalTime 	58.9
scalar net.node[26].veinsmobility 	stopTime 	358
scalar net.node[26].veinsmobility 	minSpeed 	2.9983699354203
scalar net.node[26].veinsmobility 	maxSpeed 	13.899816500419
scalar net.node[26].veinsmobility 	totalDistance 	671.7133496924
scalar net.node[26].veinsmobility 	totalCO2Emission 	178.36451317494
scalar net.node[295].appl 	messagesReceived:sum 	0
scalar net.node[295].appl 	messagesTransmitted:sum 	0
scalar net.node[295].appl 	duplicatedMessages:sum 	0
scalar net.node[295].nic.phy80211p 	busyTime 	0
scalar net.node[295].nic.mac1609_4 	ReceivedUnicastPackets 	0
scalar net.node[295].nic.mac1609_4 	ReceivedBroadcasts 	0
scalar net.node[295].nic.mac1609_4 	SentPackets 	0
scalar net.node[295].nic.mac1609_4 	SNIRLostPackets 	0
scalar net.node[295].nic.mac1609_4 	RXTXLostPackets 	0
scalar net.node[295].nic.mac1609_4 	TotalLostPackets 	0
scalar net.node[295].nic.mac1609_4 	DroppedPacketsInMac 	0
scalar net.node[295].nic.mac1609_4 	TooLittleTime 	0
scalar net.node[295].nic.mac1609_4 	TimesIntoBackoff 	0
scalar net.node[295].nic.mac1609_4 	SlotsBackoff 	0
scalar net.node[295].nic.mac1609_4 	NumInternalContention 	0
scalar net.node[295].nic.mac1609_4 	totalBusyTime 	0
scalar net.node[295].veinsmobility 	startTime 	299
scalar net.node[295].veinsmobility 	totalTime 	59.4
scalar net.node[295].veinsmobility 	stopTime 	358.5
scalar net.node[295].veinsmobility 	minSpeed 	3.058568132816
scalar net.node[295].veinsmobility 	maxSpeed 	13.899609089918
scalar net.node[295].veinsmobility 	totalDistance 	665.66404836642
scalar net.node[295].veinsmobility 	totalCO2Emission 	175.99505754953
scalar net.node[13].appl 	messagesReceived:sum 	0
scalar net.node[13].appl 	messagesTransmitted:sum 	0
scalar net.node[13].appl 	duplicatedMessages:sum 	0
scalar net.node[13].nic.phy80211p 	busyTime 	0
scalar net.node[13].nic.mac1609_4 	ReceivedUnicastPackets 	0
scalar net.node[13].nic.mac1609_4 	ReceivedBroadcasts 	0
scalar net.node[13].nic.mac1609_4 	SentPackets 	0
scalar net.node[13].nic.mac1609_4 	SNIRLostPackets 	0
scalar net.node[13].nic.mac1609_4 	RXTXLostPackets 	0
scalar net.node[13].nic.mac1609_4 	TotalLostPackets 	0
scalar net.node[13].nic.mac1609_4 	DroppedPacketsInMac 	0
scalar net.node[13].nic.mac1609_4 	TooLittleTime 	0
scalar net.node[13].nic.mac1609_4 	TimesIntoBackoff 	0
scalar net.node[13].nic.mac1609_4 	SlotsBackoff 	0
scalar net.node[13].nic.mac1609_4 	NumInternalContention 	0
scalar net.node[13].nic.mac1609_4 	totalBusyTime 	0
scalar net.node[13].veinsmobility 	startTime 	299
scalar net.node[13].veinsmobility 	totalTime 	60
scalar net.node[13].veinsmobility 	stopTime 	359.1
scalar net.node[13].veinsmobility 	minSpeed 	3.0065727628814
scalar net.node[13].veinsmobility 	maxSpeed 	13.899938609513
scalar net.node[13].veinsmobility 	totalDistance 	728.22928057614
scalar net.node[13].veinsmobility 	totalCO2Emission 	164.96947677088
scalar net.node[269].appl 	messagesReceived:sum 	0
scalar net.node[269].appl 	messagesTransmitted:sum 	0
scalar net.node[269].appl 	duplicatedMessages:sum 	0
scalar net.node[269].nic.phy80211p 	busyTime 	0
scalar net.node[269].nic.mac1609_4 	ReceivedUnicastPackets 	0
scalar net.node[269].nic.mac1609_4 	ReceivedBroadcasts 	0
scalar net.node[269].nic.mac1609_4 	SentPackets 	0
scalar net.node[269].nic.mac1609_4 	SNIRLostPackets 	0
scalar net.node[269].nic.mac1609_4 	RXTXLostPackets 	0
scalar net.node[269].nic.mac1609_4 	TotalLostPackets 	0
scalar net.node[269].nic.mac1609_4 	DroppedPacketsInMac 	0
scalar net.node[269].nic.mac1609_4 	TooLittleTime 	0
scalar net.node[269].nic.mac1609_4 	TimesIntoBackoff 	0
scalar net.node[269].nic.mac1609_4 	SlotsBackoff 	0
scalar net.node[269].nic.mac1609_4 	NumInternalContention 	0
scalar net.node[269].nic.mac1609_4 	totalBusyTime 	0
scalar net.node[269].veinsmobility 	startTime 	299
scalar net.node[269].veinsmobility 	totalTime 	60.6
scalar net.node[269].veinsmobility 	stopTime 	359.7
scalar net.node[269].veinsmobility 	minSpeed 	3.0237095722293
scalar net.node[269].veinsmobility 	maxSpeed 	13.899817327055
scalar net.node[269].veinsmobility 	totalDistance 	622.86989846701
scalar net.node[269].veinsmobility 	totalCO2Emission 	163.98311872126
scalar net.node[89].appl 	messagesReceived:sum 	0
scalar net.node[89].appl 	messagesTransmitted:sum 	0
scalar net.node[89].appl 	duplicatedMessages:sum 	0
scalar net.node[89].nic.phy80211p 	busyTime 	0
scalar net.node[89].nic.mac1609_4 	ReceivedUnicastPackets 	0
scalar net.node[89].nic.mac1609_4 	ReceivedBroadcasts 	0
scalar net.node[89].nic.mac1609_4 	SentPackets 	0
scalar net.node[89].nic.mac1609_4 	SNIRLostPackets 	0
scalar net.node[89].nic.mac1609_4 	RXTXLostPackets 	0
scalar net.node[89].nic.mac1609_4 	TotalLostPackets 	0
scalar net.node[89].nic.mac1609_4 	DroppedPacketsInMac 	0
scalar net.node[89].nic.mac1609_4 	TooLittleTime 	0
scalar net.node[89].nic.mac1609_4 	TimesIntoBackoff 	0
scalar net.node[89].nic.mac1609_4 	SlotsBackoff 	0
scalar net.node[89].nic.mac1609_4 	NumInternalContention 	0
scalar net.node[89].nic.mac1609_4 	totalBusyTime 	0
scalar net.node[89].veinsmobility 	startTime 	299
scalar net.node[89].veinsmobility 	totalTime 	61.3
scalar net.node[89].veinsmobility 	stopTime 	360.4
scalar net.node[89].veinsmobility 	minSpeed 	2.951215731039
scalar net.node[89].veinsmobility 	maxSpeed 	13.898745776928
scalar net.node[89].veinsmobility 	totalDistance 	615.80307955552
scalar net.node[89].veinsmobility 	totalCO2Emission 	166.21345301288
scalar net.node[82].appl 	messagesReceived:sum 	1
scalar net.node[82].appl 	messagesTransmitted:sum 	1
scalar net.node[82].appl 	duplicatedMessages:sum 	0
scalar net.node[82].nic.phy80211p 	busyTime 	1.2558869701727e-06
scalar net.node[82].nic.mac1609_4 	ReceivedUnicastPackets 	0
scalar net.node[82].nic.mac1609_4 	ReceivedBroadcasts 	1
scalar net.node[82].nic.mac1609_4 	SentPackets 	1
scalar net.node[82].nic.mac1609_4 	SNIRLostPackets 	0
scalar net.node[82].nic.mac1609_4 	RXTXLostPackets 	0
scalar net.node[82].nic.mac1609_4 	TotalLostPackets 	0
scalar net.node[82].nic.mac1609_4 	DroppedPacketsInMac 	0
scalar net.node[82].nic.mac1609_4 	TooLittleTime 	0
scalar net.node[82].nic.mac1609_4 	TimesIntoBackoff 	1
scalar net.node[82].nic.mac1609_4 	SlotsBackoff 	1
scalar net.node[82].nic.mac1609_4 	NumInternalContention 	0
scalar net.node[82].nic.mac1609_4 	totalBusyTime 	0.000161
scalar net.node[82].veinsmobility 	startTime 	299
scalar net.node[82].veinsmobility 	totalTime 	63.6
scalar net.node[82].veinsmobility 	stopTime 	362.7
scalar net.node[82].veinsmobility 	minSpeed 	3.061215591654
scalar net.node[82].veinsmobility 	maxSpeed 	13.899870646085
scalar net.node[82].veinsmobility 	totalDistance 	789.5295154049
scalar net.node[82].veinsmobility 	totalCO2Emission 	175.61129950936
scalar net.node[75].appl 	messagesReceived:sum 	0
scalar net.node[75].appl 	messagesTransmitted:sum 	0
scalar net.node[75].appl 	duplicatedMessages:sum 	0
scalar net.node[75].nic.phy80211p 	busyTime 	0
scalar net.node[75].nic.mac1609_4 	ReceivedUnicastPackets 	0
scalar net.node[75].nic.mac1609_4 	ReceivedBroadcasts 	0
scalar net.node[75].nic.mac1609_4 	SentPackets 	0
scalar net.node[75].nic.mac1609_4 	SNIRLostPackets 	0
scalar net.node[75].nic.mac1609_4 	RXTXLostPackets 	0
scalar net.node[75].nic.mac1609_4 	TotalLostPackets 	0
scalar net.node[75].nic.mac1609_4 	DroppedPacketsInMac 	0
scalar net.node[75].nic.mac1609_4 	TooLittleTime 	0
scalar net.node[75].nic.mac1609_4 	TimesIntoBackoff 	0
scalar net.node[75].nic.mac1609_4 	SlotsBackoff 	0
scalar net.node[75].nic.mac1609_4 	NumInternalContention 	0
scalar net.node[75].nic.mac1609_4 	totalBusyTime 	0
scalar net.node[75].veinsmobility 	startTime 	299
scalar net.node[75].veinsmobility 	totalTime 	68
scalar net.node[75].veinsmobility 	stopTime 	367.1
scalar net.node[75].veinsmobility 	minSpeed 	2.5452095124036
scalar net.node[75].veinsmobility 	maxSpeed 	13.899628727597
scalar net.node[75].veinsmobility 	totalDistance 	825.22802329191
scalar net.node[75].veinsmobility 	totalCO2Emission 	191.85982365709
scalar net.node[73].appl 	messagesReceived:sum 	0
scalar net.node[73].appl 	messagesTransmitted:sum 	0
scalar net.node[73].appl 	duplicatedMessages:sum 	0
scalar net.node[73].nic.phy80211p 	busyTime 	0
scalar net.node[73].nic.mac1609_4 	ReceivedUnicastPackets 	0
scalar net.node[73].nic.mac1609_4 	ReceivedBroadcasts 	0
scalar net.node[73].nic.mac1609_4 	SentPackets 	0
scalar net.node[73].nic.mac1609_4 	SNIRLostPackets 	0
scalar net.node[73].nic.mac1609_4 	RXTXLostPackets 	0
scalar net.node[73].nic.mac1609_4 	TotalLostPackets 	0
scalar net.node[73].nic.mac1609_4 	DroppedPacketsInMac 	0
scalar net.node[73].nic.mac1609_4 	TooLittleTime 	0
scalar net.node[73].nic.mac1609_4 	TimesIntoBackoff 	0
scalar net.node[73].nic.mac1609_4 	SlotsBackoff 	0
scalar net.node[73].nic.mac1609_4 	NumInternalContention 	0
scalar net.node[73].nic.mac1609_4 	totalBusyTime 	0
scalar net.node[73].veinsmobility 	startTime 	299
scalar net.node[73].veinsmobility 	totalTime 	68.1
scalar net.node[73].veinsmobility 	stopTime 	367.2
scalar net.node[73].veinsmobility 	minSpeed 	3.1021293880784
scalar net.node[73].veinsmobility 	maxSpeed 	13.899828864831
scalar net.node[73].veinsmobility 	totalDistance 	826.2004530287
scalar net.node[73].veinsmobility 	totalCO2Emission 	199.70239586842
scalar net.node[162].appl 	messagesReceived:sum 	7
scalar net.node[162].appl 	messagesTransmitted:sum 	1
scalar net.node[162].appl 	duplicatedMessages:sum 	6
scalar net.node[162].nic.phy80211p 	busyTime 	1.0404624277457e-05
scalar net.node[162].nic.mac1609_4 	ReceivedUnicastPackets 	0
scalar net.node[162].nic.mac1609_4 	ReceivedBroadcasts 	7
scalar net.node[162].nic.mac1609_4 	SentPackets 	1
scalar net.node[162].nic.mac1609_4 	SNIRLostPackets 	2
scalar net.node[162].nic.mac1609_4 	RXTXLostPackets 	0
scalar net.node[162].nic.mac1609_4 	TotalLostPackets 	2
scalar net.node[162].nic.mac1609_4 	DroppedPacketsInMac 	0
scalar net.node[162].nic.mac1609_4 	TooLittleTime 	0
scalar net.node[162].nic.mac1609_4 	TimesIntoBackoff 	1
scalar net.node[162].nic.mac1609_4 	SlotsBackoff 	3
scalar net.node[162].nic.mac1609_4 	NumInternalContention 	0
scalar net.node[162].nic.mac1609_4 	totalBusyTime 	0.000801
scalar net.node[162].veinsmobility 	startTime 	299
scalar net.node[162].veinsmobility 	totalTime 	69.1
scalar net.node[162].veinsmobility 	stopTime 	368.2
scalar net.node[162].veinsmobility 	minSpeed 	3.0393697017435
scalar net.node[162].veinsmobility 	maxSpeed 	13.899963090649
scalar net.node[162].veinsmobility 	totalDistance 	769.08318790038
scalar net.node[162].veinsmobility 	totalCO2Emission 	208.61094389999
scalar net.node[58].appl 	messagesReceived:sum 	4
scalar net.node[58].appl 	messagesTransmitted:sum 	1
scalar net.node[58].appl 	duplicatedMessages:sum 	3
[...]
scalar net.node[536].nic.mac1609_4 	SlotsBackoff 	0
scalar net.node[536].nic.mac1609_4 	NumInternalContention 	0
scalar net.node[536].nic.mac1609_4 	totalBusyTime 	0
scalar net.node[536].veinsmobility 	startTime 	487.3
scalar net.node[536].veinsmobility 	totalTime 	12.7
scalar net.node[536].veinsmobility 	stopTime 	500
scalar net.node[536].veinsmobility 	minSpeed 	0.59549735896163
scalar net.node[536].veinsmobility 	maxSpeed 	13.898652019893
scalar net.node[536].veinsmobility 	totalDistance 	136.83683428251
scalar net.node[536].veinsmobility 	totalCO2Emission 	47.054823540705
scalar net.node[537].appl 	messagesReceived:sum 	0
scalar net.node[537].appl 	messagesTransmitted:sum 	0
scalar net.node[537].appl 	duplicatedMessages:sum 	0
scalar net.node[537].nic.phy80211p 	busyTime 	0
scalar net.node[537].nic.mac1609_4 	ReceivedUnicastPackets 	0
scalar net.node[537].nic.mac1609_4 	ReceivedBroadcasts 	0
scalar net.node[537].nic.mac1609_4 	SentPackets 	0
scalar net.node[537].nic.mac1609_4 	SNIRLostPackets 	0
scalar net.node[537].nic.mac1609_4 	RXTXLostPackets 	0
scalar net.node[537].nic.mac1609_4 	TotalLostPackets 	0
scalar net.node[537].nic.mac1609_4 	DroppedPacketsInMac 	0
scalar net.node[537].nic.mac1609_4 	TooLittleTime 	0
scalar net.node[537].nic.mac1609_4 	TimesIntoBackoff 	0
scalar net.node[537].nic.mac1609_4 	SlotsBackoff 	0
scalar net.node[537].nic.mac1609_4 	NumInternalContention 	0
scalar net.node[537].nic.mac1609_4 	totalBusyTime 	0
scalar net.node[537].veinsmobility 	startTime 	488.1
scalar net.node[537].veinsmobility 	totalTime 	11.9
scalar net.node[537].veinsmobility 	stopTime 	500
scalar net.node[537].veinsmobility 	minSpeed 	2.1833368029989
scalar net.node[537].veinsmobility 	maxSpeed 	11.764495839935
scalar net.node[537].veinsmobility 	totalDistance 	85.648582072748
scalar net.node[537].veinsmobility 	totalCO2Emission 	43.59609280104
scalar net.node[538].appl 	messagesReceived:sum 	0
scalar net.node[538].appl 	messagesTransmitted:sum 	0
scalar net.node[538].appl 	duplicatedMessages:sum 	0
scalar net.node[538].nic.phy80211p 	busyTime 	0
scalar net.node[538].nic.mac1609_4 	ReceivedUnicastPackets 	0
scalar net.node[538].nic.mac1609_4 	ReceivedBroadcasts 	0
scalar net.node[538].nic.mac1609_4 	SentPackets 	0
scalar net.node[538].nic.mac1609_4 	SNIRLostPackets 	0
scalar net.node[538].nic.mac1609_4 	RXTXLostPackets 	0
scalar net.node[538].nic.mac1609_4 	TotalLostPackets 	0
scalar net.node[538].nic.mac1609_4 	DroppedPacketsInMac 	0
scalar net.node[538].nic.mac1609_4 	TooLittleTime 	0
scalar net.node[538].nic.mac1609_4 	TimesIntoBackoff 	0
scalar net.node[538].nic.mac1609_4 	SlotsBackoff 	0
scalar net.node[538].nic.mac1609_4 	NumInternalContention 	0
scalar net.node[538].nic.mac1609_4 	totalBusyTime 	0
scalar net.node[538].veinsmobility 	startTime 	488.9
scalar net.node[538].veinsmobility 	totalTime 	11.1
scalar net.node[538].veinsmobility 	stopTime 	500
scalar net.node[538].veinsmobility 	minSpeed 	3.1332042489613
scalar net.node[538].veinsmobility 	maxSpeed 	13.859889305116
scalar net.node[538].veinsmobility 	totalDistance 	86.857148708965
scalar net.node[538].veinsmobility 	totalCO2Emission 	25.975666957515
scalar net.node[539].appl 	messagesReceived:sum 	0
scalar net.node[539].appl 	messagesTransmitted:sum 	0
scalar net.node[539].appl 	duplicatedMessages:sum 	0
scalar net.node[539].nic.phy80211p 	busyTime 	0
scalar net.node[539].nic.mac1609_4 	ReceivedUnicastPackets 	0
scalar net.node[539].nic.mac1609_4 	ReceivedBroadcasts 	0
scalar net.node[539].nic.mac1609_4 	SentPackets 	0
scalar net.node[539].nic.mac1609_4 	SNIRLostPackets 	0
scalar net.node[539].nic.mac1609_4 	RXTXLostPackets 	0
scalar net.node[539].nic.mac1609_4 	TotalLostPackets 	0
scalar net.node[539].nic.mac1609_4 	DroppedPacketsInMac 	0
scalar net.node[539].nic.mac1609_4 	TooLittleTime 	0
scalar net.node[539].nic.mac1609_4 	TimesIntoBackoff 	0
scalar net.node[539].nic.mac1609_4 	SlotsBackoff 	0
scalar net.node[539].nic.mac1609_4 	NumInternalContention 	0
scalar net.node[539].nic.mac1609_4 	totalBusyTime 	0
scalar net.node[539].veinsmobility 	startTime 	489.7
scalar net.node[539].veinsmobility 	totalTime 	10.3
scalar net.node[539].veinsmobility 	stopTime 	500
scalar net.node[539].veinsmobility 	minSpeed 	1.7850629994376
scalar net.node[539].veinsmobility 	maxSpeed 	11.474529702398
scalar net.node[539].veinsmobility 	totalDistance 	71.78939471399
scalar net.node[539].veinsmobility 	totalCO2Emission 	34.194710745769
scalar net.node[540].appl 	messagesReceived:sum 	0
scalar net.node[540].appl 	messagesTransmitted:sum 	0
scalar net.node[540].appl 	duplicatedMessages:sum 	0
scalar net.node[540].nic.phy80211p 	busyTime 	0
scalar net.node[540].nic.mac1609_4 	ReceivedUnicastPackets 	0
scalar net.node[540].nic.mac1609_4 	ReceivedBroadcasts 	0
scalar net.node[540].nic.mac1609_4 	SentPackets 	0
scalar net.node[540].nic.mac1609_4 	SNIRLostPackets 	0
scalar net.node[540].nic.mac1609_4 	RXTXLostPackets 	0
scalar net.node[540].nic.mac1609_4 	TotalLostPackets 	0
scalar net.node[540].nic.mac1609_4 	DroppedPacketsInMac 	0
scalar net.node[540].nic.mac1609_4 	TooLittleTime 	0
scalar net.node[540].nic.mac1609_4 	TimesIntoBackoff 	0
scalar net.node[540].nic.mac1609_4 	SlotsBackoff 	0
scalar net.node[540].nic.mac1609_4 	NumInternalContention 	0
scalar net.node[540].nic.mac1609_4 	totalBusyTime 	0
scalar net.node[540].veinsmobility 	startTime 	490.5
scalar net.node[540].veinsmobility 	totalTime 	9.5
scalar net.node[540].veinsmobility 	stopTime 	500
scalar net.node[540].veinsmobility 	minSpeed 	2.1766245967275
scalar net.node[540].veinsmobility 	maxSpeed 	11.179719677129
scalar net.node[540].veinsmobility 	totalDistance 	60.682839973565
scalar net.node[540].veinsmobility 	totalCO2Emission 	32.959800585647
scalar net.node[541].appl 	messagesReceived:sum 	0
scalar net.node[541].appl 	messagesTransmitted:sum 	0
scalar net.node[541].appl 	duplicatedMessages:sum 	0
scalar net.node[541].nic.phy80211p 	busyTime 	0
scalar net.node[541].nic.mac1609_4 	ReceivedUnicastPackets 	0
scalar net.node[541].nic.mac1609_4 	ReceivedBroadcasts 	0
scalar net.node[541].nic.mac1609_4 	SentPackets 	0
scalar net.node[541].nic.mac1609_4 	SNIRLostPackets 	0
scalar net.node[541].nic.mac1609_4 	RXTXLostPackets 	0
scalar net.node[541].nic.mac1609_4 	TotalLostPackets 	0
scalar net.node[541].nic.mac1609_4 	DroppedPacketsInMac 	0
scalar net.node[541].nic.mac1609_4 	TooLittleTime 	0
scalar net.node[541].nic.mac1609_4 	TimesIntoBackoff 	0
scalar net.node[541].nic.mac1609_4 	SlotsBackoff 	0
scalar net.node[541].nic.mac1609_4 	NumInternalContention 	0
scalar net.node[541].nic.mac1609_4 	totalBusyTime 	0
scalar net.node[541].veinsmobility 	startTime 	491.3
scalar net.node[541].veinsmobility 	totalTime 	8.7
scalar net.node[541].veinsmobility 	stopTime 	500
scalar net.node[541].veinsmobility 	minSpeed 	0.7735699459539
scalar net.node[541].veinsmobility 	maxSpeed 	13.894926923288
scalar net.node[541].veinsmobility 	totalDistance 	80.513670434334
scalar net.node[541].veinsmobility 	totalCO2Emission 	37.90749536709
scalar net.node[542].appl 	messagesReceived:sum 	0
scalar net.node[542].appl 	messagesTransmitted:sum 	0
scalar net.node[542].appl 	duplicatedMessages:sum 	0
scalar net.node[542].nic.phy80211p 	busyTime 	0
scalar net.node[542].nic.mac1609_4 	ReceivedUnicastPackets 	0
scalar net.node[542].nic.mac1609_4 	ReceivedBroadcasts 	0
scalar net.node[542].nic.mac1609_4 	SentPackets 	0
scalar net.node[542].nic.mac1609_4 	SNIRLostPackets 	0
scalar net.node[542].nic.mac1609_4 	RXTXLostPackets 	0
scalar net.node[542].nic.mac1609_4 	TotalLostPackets 	0
scalar net.node[542].nic.mac1609_4 	DroppedPacketsInMac 	0
scalar net.node[542].nic.mac1609_4 	TooLittleTime 	0
scalar net.node[542].nic.mac1609_4 	TimesIntoBackoff 	0
scalar net.node[542].nic.mac1609_4 	SlotsBackoff 	0
scalar net.node[542].nic.mac1609_4 	NumInternalContention 	0
scalar net.node[542].nic.mac1609_4 	totalBusyTime 	0
scalar net.node[542].veinsmobility 	startTime 	492.1
scalar net.node[542].veinsmobility 	totalTime 	7.9
scalar net.node[542].veinsmobility 	stopTime 	500
scalar net.node[542].veinsmobility 	minSpeed 	0.35097853800222
scalar net.node[542].veinsmobility 	maxSpeed 	11.775571910449
scalar net.node[542].veinsmobility 	totalDistance 	46.680926877624
scalar net.node[542].veinsmobility 	totalCO2Emission 	12.688093495542
scalar net.node[543].appl 	messagesReceived:sum 	0
scalar net.node[543].appl 	messagesTransmitted:sum 	0
scalar net.node[543].appl 	duplicatedMessages:sum 	0
scalar net.node[543].nic.phy80211p 	busyTime 	0
scalar net.node[543].nic.mac1609_4 	ReceivedUnicastPackets 	0
scalar net.node[543].nic.mac1609_4 	ReceivedBroadcasts 	0
scalar net.node[543].nic.mac1609_4 	SentPackets 	0
scalar net.node[543].nic.mac1609_4 	SNIRLostPackets 	0
scalar net.node[543].nic.mac1609_4 	RXTXLostPackets 	0
scalar net.node[543].nic.mac1609_4 	TotalLostPackets 	0
scalar net.node[543].nic.mac1609_4 	DroppedPacketsInMac 	0
scalar net.node[543].nic.mac1609_4 	TooLittleTime 	0
scalar net.node[543].nic.mac1609_4 	TimesIntoBackoff 	0
scalar net.node[543].nic.mac1609_4 	SlotsBackoff 	0
scalar net.node[543].nic.mac1609_4 	NumInternalContention 	0
scalar net.node[543].nic.mac1609_4 	totalBusyTime 	0
scalar net.node[543].veinsmobility 	startTime 	492.9
scalar net.node[543].veinsmobility 	totalTime 	7.1
scalar net.node[543].veinsmobility 	stopTime 	500
scalar net.node[543].veinsmobility 	minSpeed 	1.6574667160617
scalar net.node[543].veinsmobility 	maxSpeed 	11.770833686479
scalar net.node[543].veinsmobility 	totalDistance 	56.236296552651
scalar net.node[543].veinsmobility 	totalCO2Emission 	26.778708038056
scalar net.node[544].appl 	messagesReceived:sum 	0
scalar net.node[544].appl 	messagesTransmitted:sum 	0
scalar net.node[544].appl 	duplicatedMessages:sum 	0
scalar net.node[544].nic.phy80211p 	busyTime 	0
scalar net.node[544].nic.mac1609_4 	ReceivedUnicastPackets 	0
scalar net.node[544].nic.mac1609_4 	ReceivedBroadcasts 	0
scalar net.node[544].nic.mac1609_4 	SentPackets 	0
scalar net.node[544].nic.mac1609_4 	SNIRLostPackets 	0
scalar net.node[544].nic.mac1609_4 	RXTXLostPackets 	0
scalar net.node[544].nic.mac1609_4 	TotalLostPackets 	0
scalar net.node[544].nic.mac1609_4 	DroppedPacketsInMac 	0
scalar net.node[544].nic.mac1609_4 	TooLittleTime 	0
scalar net.node[544].nic.mac1609_4 	TimesIntoBackoff 	0
scalar net.node[544].nic.mac1609_4 	SlotsBackoff 	0
scalar net.node[544].nic.mac1609_4 	NumInternalContention 	0
scalar net.node[544].nic.mac1609_4 	totalBusyTime 	0
scalar net.node[544].veinsmobility 	startTime 	493.9
scalar net.node[544].veinsmobility 	totalTime 	6.1
scalar net.node[544].veinsmobility 	stopTime 	500
scalar net.node[544].veinsmobility 	minSpeed 	3.0243428456879
scalar net.node[544].veinsmobility 	maxSpeed 	13.055247903618
scalar net.node[544].veinsmobility 	totalDistance 	53.873278783572
scalar net.node[544].veinsmobility 	totalCO2Emission 	29.526539746814
scalar net.node[545].appl 	messagesReceived:sum 	0
scalar net.node[545].appl 	messagesTransmitted:sum 	0
scalar net.node[545].appl 	duplicatedMessages:sum 	0
scalar net.node[545].nic.phy80211p 	busyTime 	0
scalar net.node[545].nic.mac1609_4 	ReceivedUnicastPackets 	0
scalar net.node[545].nic.mac1609_4 	ReceivedBroadcasts 	0
scalar net.node[545].nic.mac1609_4 	SentPackets 	0
scalar net.node[545].nic.mac1609_4 	SNIRLostPackets 	0
scalar net.node[545].nic.mac1609_4 	RXTXLostPackets 	0
scalar net.node[545].nic.mac1609_4 	TotalLostPackets 	0
scalar net.node[545].nic.mac1609_4 	DroppedPacketsInMac 	0
scalar net.node[545].nic.mac1609_4 	TooLittleTime 	0
scalar net.node[545].nic.mac1609_4 	TimesIntoBackoff 	0
scalar net.node[545].nic.mac1609_4 	SlotsBackoff 	0
scalar net.node[545].nic.mac1609_4 	NumInternalContention 	0
scalar net.node[545].nic.mac1609_4 	totalBusyTime 	0
scalar net.node[545].veinsmobility 	startTime 	494.5
scalar net.node[545].veinsmobility 	totalTime 	5.5
scalar net.node[545].veinsmobility 	stopTime 	500
scalar net.node[545].veinsmobility 	minSpeed 	0.50219760807324
scalar net.node[545].veinsmobility 	maxSpeed 	5.9322490030512
scalar net.node[545].veinsmobility 	totalDistance 	18.059144336196
scalar net.node[545].veinsmobility 	totalCO2Emission 	11.17656789676
scalar net.node[546].appl 	messagesReceived:sum 	0
scalar net.node[546].appl 	messagesTransmitted:sum 	0
scalar net.node[546].appl 	duplicatedMessages:sum 	0
scalar net.node[546].nic.phy80211p 	busyTime 	0
scalar net.node[546].nic.mac1609_4 	ReceivedUnicastPackets 	0
scalar net.node[546].nic.mac1609_4 	ReceivedBroadcasts 	0
scalar net.node[546].nic.mac1609_4 	SentPackets 	0
scalar net.node[546].nic.mac1609_4 	SNIRLostPackets 	0
scalar net.node[546].nic.mac1609_4 	RXTXLostPackets 	0
scalar net.node[546].nic.mac1609_4 	TotalLostPackets 	0
scalar net.node[546].nic.mac1609_4 	DroppedPacketsInMac 	0
scalar net.node[546].nic.mac1609_4 	TooLittleTime 	0
scalar net.node[546].nic.mac1609_4 	TimesIntoBackoff 	0
scalar net.node[546].nic.mac1609_4 	SlotsBackoff 	0
scalar net.node[546].nic.mac1609_4 	NumInternalContention 	0
scalar net.node[546].nic.mac1609_4 	totalBusyTime 	0
scalar net.node[546].veinsmobility 	startTime 	495.3
scalar net.node[546].veinsmobility 	totalTime 	4.7
scalar net.node[546].veinsmobility 	stopTime 	500
scalar net.node[546].veinsmobility 	minSpeed 	2.9911949993925
scalar net.node[546].veinsmobility 	maxSpeed 	9.2420379246458
scalar net.node[546].veinsmobility 	totalDistance 	27.595940373731
scalar net.node[546].veinsmobility 	totalCO2Emission 	15.479543974658
scalar net.node[547].appl 	messagesReceived:sum 	0
scalar net.node[547].appl 	messagesTransmitted:sum 	0
scalar net.node[547].appl 	duplicatedMessages:sum 	0
scalar net.node[547].nic.phy80211p 	busyTime 	0
scalar net.node[547].nic.mac1609_4 	ReceivedUnicastPackets 	0
scalar net.node[547].nic.mac1609_4 	ReceivedBroadcasts 	0
scalar net.node[547].nic.mac1609_4 	SentPackets 	0
scalar net.node[547].nic.mac1609_4 	SNIRLostPackets 	0
scalar net.node[547].nic.mac1609_4 	RXTXLostPackets 	0
scalar net.node[547].nic.mac1609_4 	TotalLostPackets 	0
scalar net.node[547].nic.mac1609_4 	DroppedPacketsInMac 	0
scalar net.node[547].nic.mac1609_4 	TooLittleTime 	0
scalar net.node[547].nic.mac1609_4 	TimesIntoBackoff 	0
scalar net.node[547].nic.mac1609_4 	SlotsBackoff 	0
scalar net.node[547].nic.mac1609_4 	NumInternalContention 	0
scalar net.node[547].nic.mac1609_4 	totalBusyTime 	0
scalar net.node[547].veinsmobility 	startTime 	496.1
scalar net.node[547].veinsmobility 	totalTime 	3.9
scalar net.node[547].veinsmobility 	stopTime 	500
scalar net.node[547].veinsmobility 	minSpeed 	3.0693632682959
scalar net.node[547].veinsmobility 	maxSpeed 	10.994941524438
scalar net.node[547].veinsmobility 	totalDistance 	25.803218693459
scalar net.node[547].veinsmobility 	totalCO2Emission 	5.6182875561272
scalar net.node[548].appl 	messagesReceived:sum 	0
scalar net.node[548].appl 	messagesTransmitted:sum 	0
scalar net.node[548].appl 	duplicatedMessages:sum 	0
scalar net.node[548].nic.phy80211p 	busyTime 	0
scalar net.node[548].nic.mac1609_4 	ReceivedUnicastPackets 	0
scalar net.node[548].nic.mac1609_4 	ReceivedBroadcasts 	0
scalar net.node[548].nic.mac1609_4 	SentPackets 	0
scalar net.node[548].nic.mac1609_4 	SNIRLostPackets 	0
scalar net.node[548].nic.mac1609_4 	RXTXLostPackets 	0
scalar net.node[548].nic.mac1609_4 	TotalLostPackets 	0
scalar net.node[548].nic.mac1609_4 	DroppedPacketsInMac 	0
scalar net.node[548].nic.mac1609_4 	TooLittleTime 	0
scalar net.node[548].nic.mac1609_4 	TimesIntoBackoff 	0
scalar net.node[548].nic.mac1609_4 	SlotsBackoff 	0
scalar net.node[548].nic.mac1609_4 	NumInternalContention 	0
scalar net.node[548].nic.mac1609_4 	totalBusyTime 	0
scalar net.node[548].veinsmobility 	startTime 	496.9
scalar net.node[548].veinsmobility 	totalTime 	3.1
scalar net.node[548].veinsmobility 	stopTime 	500
scalar net.node[548].veinsmobility 	minSpeed 	0.65401261863655
scalar net.node[548].veinsmobility 	maxSpeed 	7.3104798960081
scalar net.node[548].veinsmobility 	totalDistance 	12.512938958219
scalar net.node[548].veinsmobility 	totalCO2Emission 	10.531217128372
scalar net.node[549].appl 	messagesReceived:sum 	0
scalar net.node[549].appl 	messagesTransmitted:sum 	0
scalar net.node[549].appl 	duplicatedMessages:sum 	0
scalar net.node[549].nic.phy80211p 	busyTime 	0
scalar net.node[549].nic.mac1609_4 	ReceivedUnicastPackets 	0
scalar net.node[549].nic.mac1609_4 	ReceivedBroadcasts 	0
scalar net.node[549].nic.mac1609_4 	SentPackets 	0
scalar net.node[549].nic.mac1609_4 	SNIRLostPackets 	0
scalar net.node[549].nic.mac1609_4 	RXTXLostPackets 	0
scalar net.node[549].nic.mac1609_4 	TotalLostPackets 	0
scalar net.node[549].nic.mac1609_4 	DroppedPacketsInMac 	0
scalar net.node[549].nic.mac1609_4 	TooLittleTime 	0
scalar net.node[549].nic.mac1609_4 	TimesIntoBackoff 	0
scalar net.node[549].nic.mac1609_4 	SlotsBackoff 	0
scalar net.node[549].nic.mac1609_4 	NumInternalContention 	0
scalar net.node[549].nic.mac1609_4 	totalBusyTime 	0
scalar net.node[549].veinsmobility 	startTime 	497.7
scalar net.node[549].veinsmobility 	totalTime 	2.3
scalar net.node[549].veinsmobility 	stopTime 	500
scalar net.node[549].veinsmobility 	minSpeed 	7.1868856520538
scalar net.node[549].veinsmobility 	maxSpeed 	9.2250842964556
scalar net.node[549].veinsmobility 	totalDistance 	18.792173418083
scalar net.node[549].veinsmobility 	totalCO2Emission 	7.4850828422504
scalar net.node[550].appl 	messagesReceived:sum 	0
scalar net.node[550].appl 	messagesTransmitted:sum 	0
scalar net.node[550].appl 	duplicatedMessages:sum 	0
scalar net.node[550].nic.phy80211p 	busyTime 	0
scalar net.node[550].nic.mac1609_4 	ReceivedUnicastPackets 	0
scalar net.node[550].nic.mac1609_4 	ReceivedBroadcasts 	0
scalar net.node[550].nic.mac1609_4 	SentPackets 	0
scalar net.node[550].nic.mac1609_4 	SNIRLostPackets 	0
scalar net.node[550].nic.mac1609_4 	RXTXLostPackets 	0
scalar net.node[550].nic.mac1609_4 	TotalLostPackets 	0
scalar net.node[550].nic.mac1609_4 	DroppedPacketsInMac 	0
scalar net.node[550].nic.mac1609_4 	TooLittleTime 	0
scalar net.node[550].nic.mac1609_4 	TimesIntoBackoff 	0
scalar net.node[550].nic.mac1609_4 	SlotsBackoff 	0
scalar net.node[550].nic.mac1609_4 	NumInternalContention 	0
scalar net.node[550].nic.mac1609_4 	totalBusyTime 	0
scalar net.node[550].veinsmobility 	startTime 	498.5
scalar net.node[550].veinsmobility 	totalTime 	1.5
scalar net.node[550].veinsmobility 	stopTime 	500
scalar net.node[550].veinsmobility 	minSpeed 	9.261010751318
scalar net.node[550].veinsmobility 	maxSpeed 	11.550774221403
scalar net.node[550].veinsmobility 	totalDistance 	15.880556601664
scalar net.node[550].veinsmobility 	totalCO2Emission 	4.9411767918914
scalar net.node[551].appl 	messagesReceived:sum 	0
scalar net.node[551].appl 	messagesTransmitted:sum 	0
scalar net.node[551].appl 	duplicatedMessages:sum 	0
scalar net.node[551].nic.phy80211p 	busyTime 	0
scalar net.node[551].nic.mac1609_4 	ReceivedUnicastPackets 	0
scalar net.node[551].nic.mac1609_4 	ReceivedBroadcasts 	0
scalar net.node[551].nic.mac1609_4 	SentPackets 	0
scalar net.node[551].nic.mac1609_4 	SNIRLostPackets 	0
scalar net.node[551].nic.mac1609_4 	RXTXLostPackets 	0
scalar net.node[551].nic.mac1609_4 	TotalLostPackets 	0
scalar net.node[551].nic.mac1609_4 	DroppedPacketsInMac 	0
scalar net.node[551].nic.mac1609_4 	TooLittleTime 	0
scalar net.node[551].nic.mac1609_4 	TimesIntoBackoff 	0
scalar net.node[551].nic.mac1609_4 	SlotsBackoff 	0
scalar net.node[551].nic.mac1609_4 	NumInternalContention 	0
scalar net.node[551].nic.mac1609_4 	totalBusyTime 	0
scalar net.node[551].veinsmobility 	startTime 	499.3
scalar net.node[551].veinsmobility 	totalTime 	0.7
scalar net.node[551].veinsmobility 	stopTime 	500
scalar net.node[551].veinsmobility 	minSpeed 	13.831647645938
scalar net.node[551].veinsmobility 	maxSpeed 	13.898586590649
scalar net.node[551].veinsmobility 	totalDistance 	9.7067643613206
scalar net.node[551].veinsmobility 	totalCO2Emission 	1.0501625387738
